<?xml version="1.0" encoding="UTF-8"?>

<!-- generated on 2026-03-27 13:03:45.383234 by Eclipse SUMO osmWebWizard.py UNKNOWN
<configuration>
    <net-file value="/home/aman/Sumo/2026-03-27-13-03-19/osm.net.xml.gz"/>
    <additional-files value="/home/aman/Sumo/2026-03-27-13-03-19/osm_stops.add.xml,/home/aman/Sumo/2026-03-27-13-03-19/osm_pt.rou.xml"/>
    <output-trip-file value="/home/aman/Sumo/2026-03-27-13-03-19/osm.pedestrian.trips.xml"/>
    <route-file value="/home/aman/Sumo/2026-03-27-13-03-19/osm.pedestrian.rou.xml"/>
    <persontrips value="True"/>
    <persontrip.walk-opposite-factor value="0.8"/>
    <prefix value="ped"/>
    <trip-attributes value="modes=&quot;public&quot;"/>
    <vehicle-class value="pedestrian"/>
    <fringe-factor value="2"/>
    <seed value="46"/>
    <insertion-density value="200.0"/>
    <duarouter-weights.tls-penalty value="20"/>
</configuration>
-->

<!-- generated on 2026-03-27T13:03:45.162939+05:30 by Eclipse SUMO duarouter 1.26.0
<duarouterConfiguration xmlns:xsi="http://www.w3.org/2001/XMLSchema-instance" xsi:noNamespaceSchemaLocation="http://sumo.dlr.de/xsd/duarouterConfiguration.xsd">

    <input>
        <net-file value="/home/aman/Sumo/2026-03-27-13-03-19/osm.net.xml.gz"/>
        <additional-files value="/home/aman/Sumo/2026-03-27-13-03-19/osm_stops.add.xml,/home/aman/Sumo/2026-03-27-13-03-19/osm_pt.rou.xml"/>
        <route-files value="/home/aman/Sumo/2026-03-27-13-03-19/osm.pedestrian.trips.xml"/>
    </input>

    <output>
        <output-file value="/home/aman/Sumo/2026-03-27-13-03-19/osm.pedestrian.rou.xml"/>
        <alternatives-output value="NUL"/>
    </output>

    <processing>
        <weights.tls-penalty value="20"/>
        <persontrip.walk-opposite-factor value="0.8"/>
    </processing>

    <time>
        <begin value="0.0"/>
        <end value="3600.0"/>
    </time>

    <report>
        <no-warnings value="true"/>
        <ignore-errors value="true"/>
        <no-step-log value="true"/>
    </report>

</duarouterConfiguration>
-->

<routes xmlns:xsi="http://www.w3.org/2001/XMLSchema-instance" xsi:noNamespaceSchemaLocation="http://sumo.dlr.de/xsd/routes_file.xsd">
    <vType id="ped_pedestrian" vClass="pedestrian"/>
    <person id="ped0" type="ped_pedestrian" depart="0.00">
        <walk edges="1467828598#0 1466955035#2 1276784685#0 1276784685#1 1276784683#1 1467828600#2 1467828600#1 1467828602#1 1316371144#7 1467828601#2 1306875953 1316371144#5 1316371144#4 1316371144#3 1316371144#1 1316371146 1347077861#8 1218055037#0 1232466326 1218055036#0"/>
    </person>
    <person id="ped1" type="ped_pedestrian" depart="2.58">
        <walk edges="1316371143 1093129466#2 1316371144#1 1316371144#3 1316371144#4 1316371144#5 1306875953 1306875952#1 1306875951 1306875954#0 1306875954#1 1306875954#2 1217769110 1218055034#0 1217769109#2 1466955051#2 1466955051#3 1466955039#1"/>
    </person>
    <person id="ped2" type="ped_pedestrian" depart="5.16">
        <walk edges="1106310160#2 1466669618#4 1106310162#0 1347077861#8 1316371146 1316371144#1 1316371144#3 1316371144#4 1316371144#5 1306875953 1467828601#2 1316371144#7 1467828602#1 1467828600#1 1276784687#1"/>
    </person>
    <person id="ped3" type="ped_pedestrian" depart="7.74">
        <walk edges="1307896618#0 1466669618#4 1106310162#0 1347077861#8 1316371146 1316371144#1 1316371144#3 1316371144#4 1316371144#5 1306875953 1467828601#2 1316371144#7 1467828602#1 1467828600#1 1276784687#1 1276784687#0 378505145#0"/>
    </person>
    <person id="ped4" type="ped_pedestrian" depart="10.31">
        <walk edges="-1093134867#1 1093134868#0 1093134868#1 1106310161#4 1106310161#3 1106310161#2 1106310161#1 1106310161#0 1346337594#1 1346337597#2 -1317053754#0"/>
    </person>
    <person id="ped5" type="ped_pedestrian" depart="12.89">
        <walk edges="1106310199#1 1232466346#0 1466669618#3 1466669618#4 1106310162#0 1347077861#8 1316371146 1316371144#1 1316371144#3 1316371144#4 1316371144#5 1306875953 1467828601#2 1316371144#7 1467828602#1 1467828600#1 1467828600#2 1276784683#1 1276784685#1 1276784685#0 1466955035#1 1466955035#0"/>
    </person>
    <person id="ped6" type="ped_pedestrian" depart="15.47">
        <walk edges="1466955035#4 1467828598#1 1466955035#2 1276784685#0 1276784685#1 1276784683#1 1467828600#2 1467828600#1 1467828602#1 1316371144#7 1467828601#2 1306875952#1 1306875951 1306875954#0 1086201530#1"/>
    </person>
    <person id="ped7" type="ped_pedestrian" depart="18.05">
        <walk edges="1467828600#3 1467828600#2 1467828600#1 1467828602#1 1316371144#7 1467828601#2 1306875953 1316371144#5 1316371144#4 1316371144#3 1316371144#1 1316371146 1347077861#8 -638541495#8 -638541495#5 -638541495#4 1282213222#1 434696561#1 1282213220"/>
    </person>
    <person id="ped8" type="ped_pedestrian" depart="20.63">
        <walk edges="718411455#3 1106310161#2 1106310161#3 1106310161#4 1106310161#5 1232466326 1218055037#0 1347077861#8 1316371146 1316371144#1 1316371144#3 1316371144#4 1467828601#3"/>
    </person>
    <person id="ped9" type="ped_pedestrian" depart="23.21">
        <walk edges="-1466669641#0 1106310172#3 1106310172#2 1106310172#1 1466669618#1 1232466330#1 1232466347 1232466346#1 1106310166#1 1106310161#0 718411455#1 719591070"/>
    </person>
    <person id="ped10" type="ped_pedestrian" depart="25.79">
        <walk edges="1232466346#0 1466669618#3 1466669618#4 1106310162#0 1347077861#8 1316371146 1316371144#1 1316371144#3 1316371144#4 1316371144#5 1306875953 1467828601#2 1316371144#7 1467828602#1 1467828600#1 1467828600#2 1276784683#1 1276784685#1 1276784685#0 1466955035#2 1466955035#3 1087940505#0"/>
    </person>
    <person id="ped11" type="ped_pedestrian" depart="28.36">
        <walk edges="1232466340#0 1232466340#1 1346337593#2 1346337594#1 -1370473571#1"/>
    </person>
    <person id="ped12" type="ped_pedestrian" depart="30.94">
        <walk edges="1350604730#0 1350604730#1 1346337599#1 1346337597#1 1346337597#2 1346337594#1 1106310161#0 1106310161#1 1106310161#2 1106310161#3 1106310161#4 1106310161#5 1232466326 1218055037#0 1347077861#8 1316371146 1316371144#1 1316371144#3 1316371144#4 1316371144#5 1306875953 1306875952#1 1306875951"/>
    </person>
    <person id="ped13" type="ped_pedestrian" depart="33.52">
        <walk edges="-638541495#4 -638541495#5 -638541495#8 1218055037#0 1232466326 1106310161#5 1106310161#4 1106310161#3 1106310161#2 1106310161#1 1106310161#0"/>
    </person>
    <person id="ped14" type="ped_pedestrian" depart="36.10">
        <walk edges="1276784685#1 1276784683#1 1467828600#2 1467828600#1 1467828602#1 1316371144#7 1467828601#2 1306875953 1316371144#5 1316371144#4 1316371144#3 1316371144#1 1316371146 1347077861#8 1218055037#2 1347077861#5 1347077861#3 1347077861#2 1460426540#1"/>
    </person>
    <person id="ped15" type="ped_pedestrian" depart="38.68">
        <walk edges="1106310163#1 1282213221 1282213222#0 -638541495#4 -638541495#5 -638541495#8"/>
    </person>
    <person id="ped16" type="ped_pedestrian" depart="41.26">
        <walk edges="1217769108 1217769112#0 1217769112#1 1217769112#2 1466669618#6 1218055038#0 1106310162#2 1232466326 1106310161#5 1106310161#4 1106310161#3 1106310161#2 1106310161#1 1106310161#0 1346337594#1 1346337597#2 -1317053754#0"/>
    </person>
    <person id="ped17" type="ped_pedestrian" depart="43.84">
        <walk edges="1217769099 991531596#1 1217769111 1466955051#2"/>
    </person>
    <person id="ped18" type="ped_pedestrian" depart="46.41">
        <walk edges="1093129464 1106310163#1 1282213221 1282213222#0 1347077862#1 1347077861#1 1347077861#2 1347077861#3 1347077861#5 1218055037#2 1106310162#0 1466669618#4 1106310160#2 1106310172#0 1106310172#1 1106310172#2"/>
    </person>
    <person id="ped19" type="ped_pedestrian" depart="48.99">
        <walk edges="-638541495#8 1218055037#0 1232466326 1106310161#5"/>
    </person>
    <person id="ped20" type="ped_pedestrian" depart="51.57">
        <walk edges="1316371144#6 1316371144#5 1316371144#4 1316371144#3 1316371144#1 1316371146 1347077861#8 1218055037#2 1347077861#5 1347077861#3"/>
    </person>
    <person id="ped21" type="ped_pedestrian" depart="54.15">
        <walk edges="1346337597#1 1346337597#2 1346337594#1 1106310161#0 1106310161#1 1106310161#2 -1316573903"/>
    </person>
    <person id="ped22" type="ped_pedestrian" depart="56.73">
        <walk edges="1106310163#3 1282213222#1 434696561#1 1282213220 1218055036#2 -777762687#1 -777762687#0"/>
    </person>
    <person id="ped23" type="ped_pedestrian" depart="59.31">
        <walk edges="1306875953 1306875952#1 1306875951 1306875954#0 1306875954#1 1306875954#2 1217769110 1218055034#0 1217769108 1217769112#0"/>
    </person>
    <person id="ped24" type="ped_pedestrian" depart="61.89">
        <walk edges="1350604730#1 1346337599#1 1346337597#1 1346337597#2 1346337594#1 1106310161#0 1106310161#1 1106310161#2 1106310161#3 1106310161#4 1106310161#5 1232466326 1218055037#0 1347077861#8 1316371146 1316371144#1 1316371144#3 1316371144#4 1316371144#5 1306875953 1306875952#1 1306875951 1306875954#0 1306875954#1 1306875954#2"/>
    </person>
    <person id="ped25" type="ped_pedestrian" depart="64.47">
        <walk edges="1307896618#0 1466669618#4 1106310162#0 1347077861#8 1316371146 1316371144#1 1316371144#3 1316371144#4 1316371144#5 1306875953 1467828601#2 1316371144#7 1467828602#1 1467828600#1 1467828600#2 1276784683#1 1276784685#1 1276784685#0 1276784684 1087940505#2 1087940507#1"/>
    </person>
    <person id="ped26" type="ped_pedestrian" depart="67.04">
        <walk edges="1282213222#1 -638541495#4 -638541495#5 -638541495#8 1218055037#0 1232466326 1106310161#5 1106310161#4 -1316573906"/>
    </person>
    <person id="ped27" type="ped_pedestrian" depart="69.62">
        <walk edges="-638541495#1 -638541495#4 -638541495#5 -638541495#8 1347077861#8 1316371146 1316371144#1 1316371144#3 1316371144#4 1316371144#5 1306875953 1306875952#1 1306875951 1306875954#0 1306875954#1 1306875954#2 1217769110 1218055034#0 1217769109#2 1466955051#2 1466955051#3 1466955039#1"/>
    </person>
    <person id="ped28" type="ped_pedestrian" depart="72.20">
        <walk edges="1087940505#2 1276784684 1276784685#0 1276784685#1 1276784683#1 1467828600#2 1467828600#1 1467828602#1 1316371144#7 1467828601#2 1306875953 1316371144#5 1316371144#4 1316371144#3 1316371144#1 1316371146 1347077861#8 -638541495#8 -638541495#5 -638541495#4 1282213222#1 434696561#1 1282213220 1218055036#2 -777762687#1 -1053381292"/>
    </person>
    <person id="ped29" type="ped_pedestrian" depart="74.78">
        <walk edges="1347077861#3 1347077861#5 1218055037#2 1347077861#8 1316371146 1316371144#1 1317550619 1093129467#0"/>
    </person>
    <person id="ped30" type="ped_pedestrian" depart="77.36">
        <walk edges="1106310172#0 1106310160#2 1307896618#0"/>
    </person>
    <person id="ped31" type="ped_pedestrian" depart="79.94">
        <walk edges="369295567#1 1116243991 1347077861#8 1316371146 1316371144#1 1317550621 -1093129468#1"/>
    </person>
    <person id="ped32" type="ped_pedestrian" depart="82.52">
        <walk edges="1346337591#1 1346337591#0 1346337592 1346337593#2 1346337594#1 1106310161#0 1106310161#1 1106310161#2 1106310161#3 1106310161#4 -1093134868#1"/>
    </person>
    <person id="ped33" type="ped_pedestrian" depart="85.09">
        <walk edges="-1370473571#1 1106310161#0 1106310161#1 1106310161#2 1106310161#3 1106310161#4 1106310161#5 1232466326 1106310162#2 1218055038#0 1466669618#6 1217769112#2 1217769112#1 1218055035"/>
    </person>
    <person id="ped34" type="ped_pedestrian" depart="87.67">
        <walk edges="1346337591#1 1346337591#0 1346337592 1232466330#0 1106310199#1 1232466346#0 1466669618#3 1466669618#4 1106310162#0 1347077861#8 1316371146 1316371144#1 1316371144#3 1316371144#4 1316371144#5 1306875953 1306875952#1 1306875951 1306875954#0 1086201530#1"/>
    </person>
    <person id="ped35" type="ped_pedestrian" depart="90.25">
        <walk edges="1217769112#2 1466669618#7 1106310160#2 1232466329 1466669618#1"/>
    </person>
    <person id="ped36" type="ped_pedestrian" depart="92.83">
        <walk edges="1466669641#0 1106310172#3 1106310172#2 1106310172#1 1106310172#0 1106310160#2 1466669618#4 1106310162#0 1347077861#7"/>
    </person>
    <person id="ped37" type="ped_pedestrian" depart="95.41">
        <walk edges="1232466340#1 1232466330#0 1106310199#1 1232466346#0 1466669618#3 1466669618#4 1106310162#0 1218055037#2 1347077861#5 1347077861#3 1347077861#2 1347077861#1"/>
    </person>
    <person id="ped38" type="ped_pedestrian" depart="97.99">
        <walk edges="1086201531#0 1218055034#0"/>
    </person>
    <person id="ped39" type="ped_pedestrian" depart="100.57">
        <walk edges="1106310172#3 1106310172#2 1106310172#1 1106310172#0 1106310160#2 1466669618#4 1106310162#0 1347077861#8 1316371146 1316371144#1 1316371144#3 1316371144#4 1316371144#5 1306875953 1306875952#1 1306875951 1306875954#0 1086201530#1 1086201530#0"/>
    </person>
    <person id="ped40" type="ped_pedestrian" depart="103.14">
        <walk edges="-1165382874 1165382876 1346337592 1232466330#0 1106310199#1 1232466346#0 1466669618#3 -1307896618#0"/>
    </person>
    <person id="ped41" type="ped_pedestrian" depart="105.72">
        <walk edges="777762687#0 777762687#1 1218055036#2 1218055036#1 1218055036#0 1232466326 1106310162#2 1218055038#0 1232466344 1217769112#3"/>
    </person>
    <person id="ped42" type="ped_pedestrian" depart="108.30">
        <walk edges="1106310199#1 1232466347 1232466346#1 1106310166#1 1106310161#0 1346337594#1 1346337593#2"/>
    </person>
    <person id="ped43" type="ped_pedestrian" depart="110.88">
        <walk edges="1347077861#6 1218055037#2 1347077861#8 1316371146 1316371144#1 1316371144#3 1316371144#4 1316371144#5 1306875953 1467828601#2 1316371144#7 1467828602#1 1467828600#1 1467828600#2 1276784683#1 1276784685#1 1276784685#0 1466955035#2 1467828598#1"/>
    </person>
    <person id="ped44" type="ped_pedestrian" depart="113.46">
        <walk edges="1467828600#2 1467828600#1 1467828602#1 1316371144#7 1467828601#2 1306875953 1316371144#5 1316371144#4 1316371144#3 1316371144#1 -1093129466#2 -1316371143"/>
    </person>
    <person id="ped45" type="ped_pedestrian" depart="116.04">
        <walk edges="1106310161#3 1106310161#4 1106310161#5 1232466326 1106310162#2 1218055038#0 1466669618#6 1217769112#2 1217769112#1 1218055035 1218055034#2"/>
    </person>
    <person id="ped46" type="ped_pedestrian" depart="118.62">
        <walk edges="1106310172#2 1106310172#1 1106310172#0 1106310160#2 1466669618#4 1106310162#0 1347077861#8 1316371146 1316371144#1 1316371144#3 1316371144#4 1316371144#5 1306875953 1306875952#1 1306875951 1306875954#0"/>
    </person>
    <person id="ped47" type="ped_pedestrian" depart="121.19">
        <walk edges="1106310161#2 1106310161#3 1106310161#4 1106310161#5 1232466326 1218055037#0 1347077861#8 1316371146 1316371144#1 1316371144#3 1316371144#4 1316371144#5 1306875953 1467828601#2 1316371144#7 1467828602#1 1467828600#1 1467828600#2 1276784683#1 1276784685#1 1276784685#0 1466955035#2 1466955035#3 1467828598#2"/>
    </person>
    <person id="ped48" type="ped_pedestrian" depart="123.77">
        <walk edges="1165382876 1346337592 1232466330#0 1106310199#1 1232466346#0 1466669618#3 1466669618#4 1106310162#0 1347077861#8 1316371146 1316371144#1 1316371144#3 1316371144#4 1316371144#5 1306875953 1467828601#2 1316371144#7 1467828602#1 1467828600#1 1467828600#2 1276784683#1 1276784685#1 1276784685#0 1466955035#2 1467828598#1"/>
    </person>
    <person id="ped49" type="ped_pedestrian" depart="126.35">
        <walk edges="1467828601#2 1306875953 1316371144#5 1316371144#4 1316371144#3 1316371144#1 1316371146 1347077861#8 1218055037#0 1232466326 1106310161#5 1106310161#4 1106310161#3 1106310161#2 1106310161#1 1106310161#0 1346337594#1"/>
    </person>
    <person id="ped50" type="ped_pedestrian" depart="128.93">
        <walk edges="1106310163#0 1106310163#1 1282213221 1282213222#0 1347077862#1 1347077861#1 1347077861#2 1347077861#3 1347077861#5 1218055037#2 1347077861#8 -1093129466#0 -1316371143"/>
    </person>
    <person id="ped51" type="ped_pedestrian" depart="131.51">
        <walk edges="991531596#2 1086201531#0 1218055034#0 1217769110 1306875954#2 1306875954#1 1306875954#0 1306875951 1306875952#1 1306875953 1316371144#5 1467828601#1"/>
    </person>
    <person id="ped52" type="ped_pedestrian" depart="134.09">
        <walk edges="1232466347 1232466346#1 1106310166#1 1106310161#1 1106310161#2 1106310161#3 1106310161#4 1106310161#5 1232466326 1218055037#0 1347077861#8 1316371146 1316371144#1 1316371144#3 -1316563149"/>
    </person>
    <person id="ped53" type="ped_pedestrian" depart="136.67">
        <walk edges="1350604736 1346337600 1346337595 1346337591#0 1346337592 1232466330#0 1106310199#1 1232466330#1 1466669618#1 1106310172#1"/>
    </person>
    <person id="ped54" type="ped_pedestrian" depart="139.24">
        <walk edges="1232466325 1106310162#0 1106310162#2 1232466326 1218055036#0 1218055036#1 1218055036#2 777762687#1"/>
    </person>
    <person id="ped55" type="ped_pedestrian" depart="141.82">
        <walk edges="1467828600#3 1276784683#1 1276784685#1 1276784685#0 1466955035#2 1467828598#1 1466955035#4 1466955035#5"/>
    </person>
    <person id="ped56" type="ped_pedestrian" depart="144.40">
        <walk edges="-1316573906 1106310161#3 1106310161#2 1106310161#1 1106310161#0 1346337594#1 1346337593#2 1346337592"/>
    </person>
    <person id="ped57" type="ped_pedestrian" depart="146.98">
        <walk edges="1316371144#5 1316371144#4 1316371144#3 1316371144#1 1316371146 1347077861#8 1218055037#2 1347077861#5"/>
    </person>
    <person id="ped58" type="ped_pedestrian" depart="149.56">
        <walk edges="-1093129467#0 1093129467#1 1317550619 1316371144#3 1316371144#4 1316371144#5 1306875953 1467828601#2 1316371144#7 1467828602#1 1467828600#1 1467828600#2"/>
    </person>
    <person id="ped59" type="ped_pedestrian" depart="152.14">
        <walk edges="1087940505#1 1276784684 1276784685#0 1276784685#1 1276784683#1 1467828600#2 1467828600#1 1467828602#1 1316371144#7 1467828601#2 1306875953 1316371144#5 1316371144#4 1316371144#3 1316371144#1 1316371146 1347077861#8 -638541495#8 -638541495#5 -638541495#4 1282213222#1 434696561#1 1282213220 1218055036#2 -777762687#1 -1053381292"/>
    </person>
    <person id="ped60" type="ped_pedestrian" depart="154.72">
        <walk edges="1346337593#2 1346337594#1 1106310161#0 1106310161#1 1106310161#2 1106310161#3 1106310161#4 1106310161#5 1232466326 1218055037#0 -638541495#8 -638541495#5 1347077861#2 1347077861#1 1347077862#1"/>
    </person>
    <person id="ped61" type="ped_pedestrian" depart="157.29">
        <walk edges="1347077861#5 1347077861#3 -638541495#4 -638541495#1 -638541495#0"/>
    </person>
    <person id="ped62" type="ped_pedestrian" depart="159.87">
        <walk edges="1106310160#2 1466669618#4 1106310162#0 1347077861#8 1316371146 1316371144#1 1316371144#3 1316371144#4 1316371144#5 1306875953 1306875952#1 1306875951"/>
    </person>
    <person id="ped63" type="ped_pedestrian" depart="162.45">
        <walk edges="1316371144#5 1316371144#4 1316371144#3 1316371144#1 1316371146 1347077861#8 1218055037#2 1347077861#5 1347077861#3 1347077861#2 1347077861#1 1347077862#1 1106310163#3 1347077867"/>
    </person>
    <person id="ped64" type="ped_pedestrian" depart="165.03">
        <walk edges="-1093129467#0 1093129467#1 1317550619 1316371144#1 1316371146 1347077861#8 1106310162#0 1466669618#4 1466669618#3 1232466346#0 1106310199#1 1232466330#0 1346337592"/>
    </person>
    <person id="ped65" type="ped_pedestrian" depart="167.61">
        <walk edges="1093134868#0 -1093134867#1 1218055036#0 1232466326 1218055037#0 1347077861#8 1316371146 1316371144#1 1316371144#3 1316371144#4 1316371144#5 1306875953 1467828601#2 1316371144#7 1467828602#1 1467828600#1 1276784687#1 1276784687#0 378505145#1 1217769101#1"/>
    </person>
    <person id="ped66" type="ped_pedestrian" depart="170.19">
        <walk edges="1086201532#1 1276784688 1467828600#2 1276784683#1 1276784685#1 1276784685#0"/>
    </person>
    <person id="ped67" type="ped_pedestrian" depart="172.77">
        <walk edges="1106310161#5 1106310161#4 1316573906"/>
    </person>
    <person id="ped68" type="ped_pedestrian" depart="175.34">
        <walk edges="1165382876 1346337592 1232466330#0 1106310199#1 1232466330#1 1466669618#1 1106310172#1"/>
    </person>
    <person id="ped69" type="ped_pedestrian" depart="177.92">
        <walk edges="1106310167 1165382876 1346337592 1232466330#0 1106310199#1 1232466346#0 1466669618#3 1466669618#7 1217769112#2 1217769112#1 1218055035 1218055034#2 1086201531#0 991531596#2"/>
    </person>
    <person id="ped70" type="ped_pedestrian" depart="180.50">
        <walk edges="1316371144#1 1316371144#3 1316371144#4 1316371144#5 1306875953 1306875952#1 1306875951 1306875954#0 1306875954#1 1306875954#2 1217769110 1218055034#0 1086201531#0 1466955051#0"/>
    </person>
    <person id="ped71" type="ped_pedestrian" depart="183.08">
        <walk edges="1317550621 1316371144#3 1316371144#4 1316371144#5 1306875953 1306875952#1 1306875951 1306875954#0 1306875954#1 1306875954#2 1217769110 1218055034#0 1217769109#2 1217769111 991531596#0"/>
    </person>
    <person id="ped72" type="ped_pedestrian" depart="185.66">
        <walk edges="1232466347 1232466346#1"/>
    </person>
    <person id="ped73" type="ped_pedestrian" depart="188.24">
        <walk edges="1106310163#0 -638541495#1 -638541495#4 -638541495#5 -638541495#8 1218055037#0 1232466326 1106310161#5 1106310161#4 1106310161#3"/>
    </person>
    <person id="ped74" type="ped_pedestrian" depart="190.82">
        <walk edges="1467828600#1 1467828602#1 1316371144#7 1467828601#2 1306875953 1316371144#5 1316371144#4 1316371144#3 1316371144#1 1316371146 1347077861#8 1218055037#0 1232466326 1106310161#5 1106310161#4 1106310161#3 1106310161#2 1106310161#1 1106310166#1 1232466346#1 1232466347"/>
    </person>
    <person id="ped75" type="ped_pedestrian" depart="193.40">
        <walk edges="1346337592 1232466330#0 1106310199#1 1232466346#0 1466669618#3 1466669618#4 1106310162#0 1347077861#8 1316371146 1316371144#1 1316371144#3 1316371144#4 1467828601#3"/>
    </person>
    <person id="ped76" type="ped_pedestrian" depart="195.97">
        <walk edges="1282213220 434696561#1 1282213222#1 -638541495#4 -638541495#5 -638541495#8 1347077861#8 -1093129466#0 1093129466#1"/>
    </person>
    <person id="ped77" type="ped_pedestrian" depart="198.55">
        <walk edges="1347077861#2 1347077861#3 1347077861#5 1218055037#2 1106310162#0 1466669618#4"/>
    </person>
    <person id="ped78" type="ped_pedestrian" depart="201.13">
        <walk edges="1467828602#1 1316371144#7 1467828601#2 1306875953 1316371144#5 1316371144#4 1316371144#3 1316371144#1 1316371146 1347077861#8 1106310162#0 1232466325"/>
    </person>
    <person id="ped79" type="ped_pedestrian" depart="203.71">
        <walk edges="-777762687#0 777762687#1 1218055036#2 1218055036#1 1218055036#0 1106310161#5 1106310161#4 1106310161#3 1106310161#2 1106310161#1 1106310161#0 1346337594#1 1346337597#2"/>
    </person>
    <person id="ped80" type="ped_pedestrian" depart="206.29">
        <walk edges="1466669618#3 1232466346#0 1106310199#1 1232466330#0 1346337592 1346337591#0 1346337595 -1182435824#0"/>
    </person>
    <person id="ped81" type="ped_pedestrian" depart="208.87">
        <walk edges="1466669618#8 1466669618#4 1106310162#0 1347077861#8 1316371146 1316371144#1 1316371144#3 1316371144#4 1316371144#5 1306875953 1467828601#2 1316371144#7 1467828602#1 1467828600#1 1467828600#2 1276784683#1 1276784685#1 1276784685#0 1466955035#2"/>
    </person>
    <person id="ped82" type="ped_pedestrian" depart="211.45">
        <walk edges="-1316573903 1106310161#4 1106310161#5 1232466326 1218055037#0 1347077861#8 1316371146 1316371144#1 1316371144#3 1316563146#1"/>
    </person>
    <person id="ped83" type="ped_pedestrian" depart="214.02">
        <walk edges="-638541495#4 -638541495#5 -638541495#8 1347077861#8 1316371146 1316371144#1 1316371144#3 1316371144#4 1316371144#5 1306875953 1467828601#2 1316371144#7 1467828602#1 1467828600#1 1276784687#1"/>
    </person>
    <person id="ped84" type="ped_pedestrian" depart="216.60">
        <walk edges="1106310163#2 1106310163#3 1347077862#1 1347077861#1 1347077861#2 1347077861#3 1347077861#5 1218055037#2 1347077861#8 1316371146 1316371144#1 1316371144#3 1316371144#4 1316371144#5 1306875953 1467828601#2 1316371144#7 1467828602#1 1467828600#1 1467828600#2 1276784683#1"/>
    </person>
    <person id="ped85" type="ped_pedestrian" depart="219.18">
        <walk edges="1316371146 1347077861#8 1106310162#0 1466669618#4 1106310160#2 1232466329 1466669618#1"/>
    </person>
    <person id="ped86" type="ped_pedestrian" depart="221.76">
        <walk edges="1232466340#0 1232466340#1 1232466330#0 1106310199#1 1232466346#0 1466669618#3 1466669618#4 1106310162#0 1347077861#8 1316371146 1316371144#1 1316371144#3 1316371144#4 1316371144#5 1306875953 1467828601#2 1316371144#7 1467828602#1 1086201532#1"/>
    </person>
    <person id="ped87" type="ped_pedestrian" depart="224.34">
        <walk edges="1165382876 1346337592 1232466330#0 1106310199#1 1232466346#0 1466669618#3 1466669618#4 1466669618#5 1218055038#0"/>
    </person>
    <person id="ped88" type="ped_pedestrian" depart="226.92">
        <walk edges="1217769101#0 1466955035#1 1276784685#0 1276784685#1 1276784683#1 1467828600#2 1467828600#1 1467828602#1 1316371144#7 1467828601#2 1306875953 1316371144#5 1316371144#4 1316371144#3 1316371144#1 1316371146 1347077861#8 1218055037#0 1232466326 1106310161#5 -1093134868#1 1093134868#0"/>
    </person>
    <person id="ped89" type="ped_pedestrian" depart="229.50">
        <walk edges="991531596#0 1466955039#0 1466955051#2 1217769109#2"/>
    </person>
    <person id="ped90" type="ped_pedestrian" depart="232.07">
        <walk edges="-1053381292 777762687#1 1218055036#2 1218055036#1 1218055036#0 1106310161#5 1106310161#4"/>
    </person>
    <person id="ped91" type="ped_pedestrian" depart="234.65">
        <walk edges="1232466344 1218055038#0 1347077861#8 1316371146 1316371144#1 1316371144#3 1316371144#4 1316371144#5 1306875953 1467828601#2 1316371144#7 1467828602#1 1467828600#1 1467828600#2 1276784683#1 1276784685#1 1276784685#0 1466955035#2 1467828598#0 -1276784686#0"/>
    </person>
    <person id="ped92" type="ped_pedestrian" depart="237.23">
        <walk edges="1217769099 991531596#2 1086201531#0 1218055034#0 1217769110 1306875954#2 1306875954#1 1306875954#0 1306875951 1306875952#1 1467828601#2 1316371144#7 1467828602#1 1467828600#1 1467828600#2"/>
    </person>
    <person id="ped93" type="ped_pedestrian" depart="239.81">
        <walk edges="1086201530#1 1306875954#0 1306875951 1306875952#1 1306875953 1316371144#5 1316371144#4 1316371144#3 1316371144#1 1316371146 1347077861#8 -638541495#8 -638541495#5 -638541495#4 -638541495#1"/>
    </person>
    <person id="ped94" type="ped_pedestrian" depart="242.39">
        <walk edges="1232466329 1106310160#2 1466669618#4 1106310162#0 1347077861#8 1316371146 1316371144#1 1317550621 -1093129468#1"/>
    </person>
    <person id="ped95" type="ped_pedestrian" depart="244.97">
        <walk edges="1467828600#2 1276784683#1 1276784685#1 1276784685#0 1466955035#1"/>
    </person>
    <person id="ped96" type="ped_pedestrian" depart="247.55">
        <walk edges="1086201532#1 1467828602#1 1316371144#7 1467828601#2 1306875952#1 1306875951 1306875954#0 1306875954#1 1306875954#2 1217769110 1218055034#0 1217769109#2 1466955051#2"/>
    </person>
    <person id="ped97" type="ped_pedestrian" depart="250.12">
        <walk edges="777762687#0 777762687#1 1218055036#2 1218055036#1 1218055036#0 1106310161#5 1106310161#4 1106310161#3 1106310161#2 1106310161#1 1106310161#0 1370473571#1"/>
    </person>
    <person id="ped98" type="ped_pedestrian" depart="252.70">
        <walk edges="1106310161#1 1106310166#1 1232466346#1"/>
    </person>
    <person id="ped99" type="ped_pedestrian" depart="255.28">
        <walk edges="1093129466#0 1316371146 1316371144#1 1316371144#3 1316371144#4 1316371144#5 1306875953 1467828601#2 1316371144#7 1467828602#1 1467828600#1 1467828600#2 1276784683#1 1276784685#1 1276784685#0 1466955035#2"/>
    </person>
    <person id="ped100" type="ped_pedestrian" depart="257.86">
        <walk edges="1218055034#0 1217769110 1306875954#2 1306875954#1 1306875954#0 1306875951 1306875952#1 1306875953 1316371144#5 1316371144#4 1316371144#3 1316371144#1 1316371146 1347077861#8 1106310162#0 1466669618#4 1466669618#3 1232466346#0 1106310199#1 1232466330#0 1346337592 1346337591#0"/>
    </person>
    <person id="ped101" type="ped_pedestrian" depart="260.44">
        <walk edges="1218055034#2 1218055035 1217769112#1 1217769112#2 1466669618#6 1218055038#0 1106310162#2 1232466326 1106310161#5 1106310161#4 1106310161#3 1106310161#2 718411455#3"/>
    </person>
    <person id="ped102" type="ped_pedestrian" depart="263.02">
        <walk edges="1116243991 1347077861#8 1316371146 1316371144#1 1316371144#3 1316371144#4 1316371144#5 1306875953 1306875952#1 1306875951 1306875954#0 1306875954#1 1306875954#2 1217769110 1218055034#0 1086201531#0 1466955051#0"/>
    </person>
    <person id="ped103" type="ped_pedestrian" depart="265.60">
        <walk edges="1466955051#2 1217769109#2 1218055034#2 1218055035 1217769112#1 1217769112#2 1466669618#6 1218055038#0 1106310162#2 1232466326 1106310161#5 1106310161#4 1106310161#3 1106310161#2 1106310161#1 1106310161#0 1346337594#1 1346337597#2 1317053754#1"/>
    </person>
    <person id="ped104" type="ped_pedestrian" depart="268.17">
        <walk edges="-1316573906 1106310161#4 1106310161#5 1232466326 1218055037#0 1347077861#8 1316371146 1316371144#1 1316371144#3 1316371144#4 1316371144#5 1306875953 1467828601#2 1316371144#7 1467828602#1"/>
    </person>