<?xml version="1.0" encoding="UTF-8"?>

<!-- generated on 2026-03-27 13:03:42.795131 by Eclipse SUMO osmWebWizard.py UNKNOWN
<configuration>
    <net-file value="/home/aman/Sumo/2026-03-27-13-03-19/osm.net.xml.gz"/>
    <output-trip-file value="/home/aman/Sumo/2026-03-27-13-03-19/osm.passenger.trips.xml"/>
    <route-file value="/home/aman/Sumo/2026-03-27-13-03-19/osm.passenger.rou.xml"/>
    <prefix value="veh"/>
    <trip-attributes value="departLane=&quot;best&quot;"/>
    <fringe-start-attributes value="departSpeed=&quot;max&quot;"/>
    <vehicle-class value="passenger"/>
    <lanes value="True"/>
    <fringe-factor value="8"/>
    <allow-fringe.min-length value="1000.0"/>
    <edge-permission value="passenger"/>
    <via-edge-types value="highway.motorway,highway.motorway_link,highway.trunk_link,highway.primary_link,highway.secondary_link,highway.tertiary_link"/>
    <seed value="45"/>
    <min-distance value="300.0"/>
    <min-distance.fringe value="10.0"/>
    <remove-loops value="True"/>
    <insertion-density value="400.0"/>
</configuration>
-->

<routes xmlns:xsi="http://www.w3.org/2001/XMLSchema-instance" xsi:noNamespaceSchemaLocation="http://sumo.dlr.de/xsd/routes_file.xsd">
    <vType id="veh_passenger" vClass="passenger"/>
    <trip id="veh0" depart="0.00" from="1166322819#2" to="325833350#0" departLane="best" type="veh_passenger"/>
    <trip id="veh1" depart="1.43" from="638541495#7" to="464465211#3" departLane="best" type="veh_passenger"/>
    <trip id="veh2" depart="2.86" from="542070643#0" to="91890605#1" departLane="best" type="veh_passenger"/>
    <trip id="veh3" depart="4.29" from="-1014276813#1" to="325833350#0" departLane="best" type="veh_passenger" departSpeed="max"/>
    <trip id="veh4" depart="5.71" from="-995154329#1" to="263812623#2" departLane="best" type="veh_passenger"/>
    <trip id="veh5" depart="7.14" from="36967442#3" to="325833350#1" departLane="best" type="veh_passenger"/>
    <trip id="veh6" depart="8.57" from="1106310171" to="36967442#4" departLane="best" type="veh_passenger" departSpeed="max"/>
    <trip id="veh7" depart="10.00" from="-1093707705#1" to="763293421" departLane="best" type="veh_passenger"/>
    <trip id="veh8" depart="11.43" from="36967442#2" to="325833350#1" departLane="best" type="veh_passenger"/>
    <trip id="veh9" depart="12.86" from="36967442#3" to="325833350#0" departLane="best" type="veh_passenger"/>
    <trip id="veh10" depart="14.29" from="464465211#5" to="263812623#2" departLane="best" type="veh_passenger"/>
    <trip id="veh11" depart="15.71" from="112028497" to="1346336050#2" departLane="best" type="veh_passenger" departSpeed="max"/>
    <trip id="veh12" depart="17.14" from="691218619" to="1093707708#1" departLane="best" type="veh_passenger" departSpeed="max"/>
    <trip id="veh13" depart="18.57" from="691218619" to="172947338#3" departLane="best" type="veh_passenger" departSpeed="max"/>
    <trip id="veh14" depart="20.00" from="691218619" to="1093707708#1" departLane="best" type="veh_passenger" departSpeed="max"/>
    <trip id="veh15" depart="21.43" from="112028497" to="-995154329#2" departLane="best" type="veh_passenger" departSpeed="max"/>
    <trip id="veh16" depart="22.86" from="691218619" to="542070643#2" departLane="best" type="veh_passenger" departSpeed="max"/>
    <trip id="veh17" depart="24.29" from="995154329#1" to="263812623#3" departLane="best" type="veh_passenger"/>
    <trip id="veh18" depart="25.71" from="691218619" to="36967442#2" departLane="best" type="veh_passenger" departSpeed="max"/>
    <trip id="veh19" depart="27.14" from="112028497" to="224621537#1" departLane="best" type="veh_passenger" departSpeed="max"/>
    <trip id="veh20" depart="28.57" from="-1093707708#1" to="38522039" departLane="best" type="veh_passenger" departSpeed="max"/>
    <trip id="veh21" depart="30.00" from="36967442#3" to="1148434866" departLane="best" type="veh_passenger"/>
    <trip id="veh22" depart="31.43" from="-1093707708#1" to="325833356#2" departLane="best" type="veh_passenger" departSpeed="max"/>
    <trip id="veh23" depart="32.86" from="1182435824#0" to="1166322823#1" departLane="best" type="veh_passenger" departSpeed="max"/>
    <trip id="veh24" depart="34.29" from="691218619" to="1093707706" departLane="best" type="veh_passenger" departSpeed="max"/>
    <trip id="veh25" depart="35.71" from="-1093707708#1" to="638541502#1" departLane="best" type="veh_passenger" departSpeed="max"/>
    <trip id="veh26" depart="37.14" from="691218619" to="1093707706" departLane="best" type="veh_passenger" departSpeed="max"/>
    <trip id="veh27" depart="38.57" from="1182435824#0" to="1369024077#0" departLane="best" type="veh_passenger" departSpeed="max"/>
    <trip id="veh28" depart="40.00" from="1182435824#0" to="1166322819#2" departLane="best" type="veh_passenger" departSpeed="max"/>
    <trip id="veh29" depart="41.43" from="691218619" to="542070643#2" departLane="best" type="veh_passenger" departSpeed="max"/>
    <trip id="veh30" depart="42.86" from="464465211#5" to="36967442#4" departLane="best" type="veh_passenger"/>
    <trip id="veh31" depart="44.29" from="1101271052#1" to="1014276813#1" departLane="best" type="veh_passenger"/>
    <trip id="veh32" depart="45.71" from="91890605#2" to="638541502#0" departLane="best" type="veh_passenger"/>
    <trip id="veh33" depart="47.14" from="1182435824#0" to="542070643#0" departLane="best" type="veh_passenger" departSpeed="max"/>
    <trip id="veh34" depart="48.57" from="691218619" to="263812623#2" departLane="best" type="veh_passenger" departSpeed="max"/>
    <trip id="veh35" depart="50.00" from="691218619" to="1166322819#2" departLane="best" type="veh_passenger" departSpeed="max"/>
    <trip id="veh36" depart="51.43" from="36967442#1" to="1148434866" departLane="best" type="veh_passenger"/>
    <trip id="veh37" depart="52.86" from="1182435824#0" to="638541502#1" departLane="best" type="veh_passenger" departSpeed="max"/>
    <trip id="veh38" depart="54.29" from="224621537#1" to="325833350#0" departLane="best" type="veh_passenger"/>
    <trip id="veh39" depart="55.71" from="1101271052#2" to="263812623#3" departLane="best" type="veh_passenger"/>
    <trip id="veh40" depart="57.14" from="691218619" to="1093707708#1" departLane="best" type="veh_passenger" departSpeed="max"/>
    <trip id="veh41" depart="58.57" from="36967442#3" to="464465211#5" departLane="best" type="veh_passenger"/>
    <trip id="veh42" depart="60.00" from="1182435824#0" to="38522039" departLane="best" type="veh_passenger" departSpeed="max"/>
    <trip id="veh43" depart="61.43" from="638541495#5" to="325833350#0" departLane="best" type="veh_passenger"/>
    <trip id="veh44" depart="62.86" from="36967442#4" to="325833350#1" departLane="best" type="veh_passenger"/>
    <trip id="veh45" depart="64.28" from="1182435824#0" to="325833350#1" departLane="best" type="veh_passenger" departSpeed="max"/>
    <trip id="veh46" depart="65.71" from="1101271052#1" to="36967442#5" departLane="best" type="veh_passenger"/>
    <trip id="veh47" depart="67.14" from="464465211#5" to="36967442#5" departLane="best" type="veh_passenger"/>
    <trip id="veh48" depart="68.57" from="691218619" to="542070643#2" departLane="best" type="veh_passenger" departSpeed="max"/>
    <trip id="veh49" depart="70.00" from="691218619" to="464465211#5" departLane="best" type="veh_passenger" departSpeed="max"/>
    <trip id="veh50" depart="71.43" from="1106310171" to="36967442#5" departLane="best" type="veh_passenger" departSpeed="max"/>
    <trip id="veh51" depart="72.86" from="1182435824#0" to="464465211#5" departLane="best" type="veh_passenger" departSpeed="max"/>
    <trip id="veh52" depart="74.28" from="691218619" to="542070643#0" departLane="best" type="veh_passenger" departSpeed="max"/>
    <trip id="veh53" depart="75.71" from="638541495#5" to="1148434866" departLane="best" type="veh_passenger"/>
    <trip id="veh54" depart="77.14" from="691218619" to="1093707708#1" departLane="best" type="veh_passenger" departSpeed="max"/>
    <trip id="veh55" depart="78.57" from="1182435824#0" to="638541502#1" departLane="best" type="veh_passenger" departSpeed="max"/>
    <trip id="veh56" depart="80.00" from="691218619" to="1101271052#2" departLane="best" type="veh_passenger" departSpeed="max"/>
    <trip id="veh57" depart="81.43" from="464465211#5" to="36967442#1" departLane="best" type="veh_passenger"/>
    <trip id="veh58" depart="82.86" from="36967442#2" to="542070643#0" departLane="best" type="veh_passenger"/>
    <trip id="veh59" depart="84.28" from="1101271052#1" to="1093707708#1" departLane="best" type="veh_passenger"/>
    <trip id="veh60" depart="85.71" from="1101271052#1" to="36967442#3" departLane="best" type="veh_passenger"/>
    <trip id="veh61" depart="87.14" from="995154329#2" to="325833350#1" departLane="best" type="veh_passenger"/>
    <trip id="veh62" depart="88.57" from="542070643#0" to="1166322819#3" departLane="best" type="veh_passenger"/>
    <trip id="veh63" depart="90.00" from="638541495#0" to="325833356#2" departLane="best" type="veh_passenger"/>
    <trip id="veh64" depart="91.43" from="36967442#1" to="638541500#0" departLane="best" type="veh_passenger"/>
    <trip id="veh65" depart="92.86" from="691218619" to="464465211#5" departLane="best" type="veh_passenger" departSpeed="max"/>
    <trip id="veh66" depart="94.28" from="36967442#1" to="638541500#0" departLane="best" type="veh_passenger"/>
    <trip id="veh67" depart="95.71" from="-1093707708#1" to="542070643#0" departLane="best" type="veh_passenger" departSpeed="max"/>
    <trip id="veh68" depart="97.14" from="464465211#5" to="263812623#3" departLane="best" type="veh_passenger"/>
    <trip id="veh69" depart="98.57" from="112028497" to="325833356#2" departLane="best" type="veh_passenger" departSpeed="max"/>
    <trip id="veh70" depart="100.00" from="691218619" to="36967442#1" departLane="best" type="veh_passenger" departSpeed="max"/>
    <trip id="veh71" depart="101.43" from="36967442#4" to="325833356#2" departLane="best" type="veh_passenger"/>
    <trip id="veh72" depart="102.86" from="542070643#2" to="325833350#0" departLane="best" type="veh_passenger"/>
    <trip id="veh73" depart="104.28" from="691218619" to="995154329#1" departLane="best" type="veh_passenger" departSpeed="max"/>
    <trip id="veh74" depart="105.71" from="691218619" to="1014276813#1" departLane="best" type="veh_passenger" departSpeed="max"/>
    <trip id="veh75" depart="107.14" from="1182435824#0" to="638541502#0" departLane="best" type="veh_passenger" departSpeed="max"/>
    <trip id="veh76" depart="108.57" from="-1093707706" to="464465211#5" departLane="best" type="veh_passenger" departSpeed="max"/>
    <trip id="veh77" depart="110.00" from="691218619" to="-1093707705#1" departLane="best" type="veh_passenger" departSpeed="max"/>
    <trip id="veh78" depart="111.43" from="691218619" to="36967442#2" departLane="best" type="veh_passenger" departSpeed="max"/>
    <trip id="veh79" depart="112.86" from="691218619" to="1093707706" departLane="best" type="veh_passenger" departSpeed="max"/>
    <trip id="veh80" depart="114.28" from="1182435824#0" to="638541502#0" departLane="best" type="veh_passenger" departSpeed="max"/>
    <trip id="veh81" depart="115.71" from="91890605#1" to="1166322823#1" departLane="best" type="veh_passenger"/>
    <trip id="veh82" depart="117.14" from="691218619" to="1014276813#1" departLane="best" type="veh_passenger" departSpeed="max"/>
    <trip id="veh83" depart="118.57" from="638541495#4" to="464465211#3" departLane="best" type="veh_passenger"/>
    <trip id="veh84" depart="120.00" from="112028497" to="1227534098#0" departLane="best" type="veh_passenger" departSpeed="max"/>
    <trip id="veh85" depart="121.43" from="91890605#2" to="638541500#0" departLane="best" type="veh_passenger"/>
    <trip id="veh86" depart="122.86" from="691218619" to="1093707708#1" departLane="best" type="veh_passenger" departSpeed="max"/>
    <trip id="veh87" depart="124.28" from="638541495#0" to="763293421" departLane="best" type="veh_passenger"/>
    <trip id="veh88" depart="125.71" from="691218619" to="1093707708#1" departLane="best" type="veh_passenger" departSpeed="max"/>
    <trip id="veh89" depart="127.14" from="1182435824#0" to="1148434866" departLane="best" type="veh_passenger" departSpeed="max"/>
    <trip id="veh90" depart="128.57" from="542070643#0" to="1014276813#1" departLane="best" type="veh_passenger"/>
    <trip id="veh91" depart="130.00" from="691218619" to="1093707706" departLane="best" type="veh_passenger" departSpeed="max"/>
    <trip id="veh92" depart="131.43" from="691218619" to="-1093707705#1" departLane="best" type="veh_passenger" departSpeed="max"/>
    <trip id="veh93" depart="132.86" from="691218619" to="1227534098#0" departLane="best" type="veh_passenger" departSpeed="max"/>
    <trip id="veh94" depart="134.28" from="-1014276813#1" to="763293421" departLane="best" type="veh_passenger" departSpeed="max"/>
    <trip id="veh95" depart="135.71" from="1106310171" to="36967442#4" departLane="best" type="veh_passenger" departSpeed="max"/>
    <trip id="veh96" depart="137.14" from="691218619" to="1014276813#1" departLane="best" type="veh_passenger" departSpeed="max"/>
    <trip id="veh97" depart="138.57" from="-1093707708#1" to="464465211#3" departLane="best" type="veh_passenger" departSpeed="max"/>
    <trip id="veh98" depart="140.00" from="1106310171" to="91890605#1" departLane="best" type="veh_passenger" departSpeed="max"/>
    <trip id="veh99" depart="141.43" from="1106310171" to="325833350#1" departLane="best" type="veh_passenger" departSpeed="max"/>
    <trip id="veh100" depart="142.86" from="112028497" to="91890605#1" departLane="best" type="veh_passenger" departSpeed="max"/>
    <trip id="veh101" depart="144.28" from="691218619" to="464465211#3" departLane="best" type="veh_passenger" departSpeed="max"/>
    <trip id="veh102" depart="145.71" from="691218619" to="1014276813#1" departLane="best" type="veh_passenger" departSpeed="max"/>
    <trip id="veh103" depart="147.14" from="1106310171" to="1093707708#1" departLane="best" type="veh_passenger" departSpeed="max"/>
    <trip id="veh104" depart="148.57" from="691218619" to="263812623#1" departLane="best" type="veh_passenger" departSpeed="max"/>
    <trip id="veh105" depart="150.00" from="638541495#0" to="325833350#0" departLane="best" type="veh_passenger"/>
    <trip id="veh106" depart="151.43" from="464465211#2" to="263812623#2" departLane="best" type="veh_passenger"/>
    <trip id="veh107" depart="152.86" from="691218619" to="36967442#3" departLane="best" type="veh_passenger" departSpeed="max"/>
    <trip id="veh108" depart="154.28" from="36967442#4" to="325833356#2" departLane="best" type="veh_passenger"/>
    <trip id="veh109" depart="155.71" from="1101271052#1" to="36967442#4" departLane="best" type="veh_passenger"/>
    <trip id="veh110" depart="157.14" from="691218619" to="542070643#0" departLane="best" type="veh_passenger" departSpeed="max"/>
    <trip id="veh111" depart="158.57" from="542070643#2" to="263812623#2" departLane="best" type="veh_passenger"/>
    <trip id="veh112" depart="160.00" from="691218619" to="1014276813#1" departLane="best" type="veh_passenger" departSpeed="max"/>
    <trip id="veh113" depart="161.43" from="691218619" to="224621537#1" departLane="best" type="veh_passenger" departSpeed="max"/>
    <trip id="veh114" depart="162.86" from="112028497" to="325833350#1" departLane="best" type="veh_passenger" departSpeed="max"/>
    <trip id="veh115" depart="164.28" from="36967442#5" to="464465211#3" departLane="best" type="veh_passenger"/>
    <trip id="veh116" depart="165.71" from="36967442#1" to="638541500#0" departLane="best" type="veh_passenger"/>
    <trip id="veh117" depart="167.14" from="1106310171" to="1014276813#1" departLane="best" type="veh_passenger" departSpeed="max"/>
    <trip id="veh118" depart="168.57" from="-1014276813#1" to="325833350#1" departLane="best" type="veh_passenger" departSpeed="max"/>
    <trip id="veh119" depart="170.00" from="-1014276813#1" to="763293421" departLane="best" type="veh_passenger" departSpeed="max"/>
    <trip id="veh120" depart="171.43" from="1106310171" to="1101271052#2" departLane="best" type="veh_passenger" departSpeed="max"/>
    <trip id="veh121" depart="172.85" from="638541495#1" to="1166322823#0" departLane="best" type="veh_passenger"/>
    <trip id="veh122" depart="174.28" from="1106310171" to="36967442#5" departLane="best" type="veh_passenger" departSpeed="max"/>
    <trip id="veh123" depart="175.71" from="-1093707705#1" to="325833350#0" departLane="best" type="veh_passenger"/>
    <trip id="veh124" depart="177.14" from="464465211#5" to="36967442#3" departLane="best" type="veh_passenger"/>
    <trip id="veh125" depart="178.57" from="1166322819#2" to="325833350#0" departLane="best" type="veh_passenger"/>
    <trip id="veh126" depart="180.00" from="36967442#2" to="325833350#0" departLane="best" type="veh_passenger"/>
    <trip id="veh127" depart="181.43" from="91890605#2" to="638541502#0" departLane="best" type="veh_passenger"/>
    <trip id="veh128" depart="182.85" from="91890605#1" to="1166322823#0" departLane="best" type="veh_passenger"/>
    <trip id="veh129" depart="184.28" from="464465211#3" to="263812623#3" departLane="best" type="veh_passenger"/>
    <trip id="veh130" depart="185.71" from="91890605#1" to="542070643#0" departLane="best" type="veh_passenger"/>
    <trip id="veh131" depart="187.14" from="542070643#0" to="91890605#2" departLane="best" type="veh_passenger"/>
    <trip id="veh132" depart="188.57" from="1106310171" to="36967442#3" departLane="best" type="veh_passenger" departSpeed="max"/>
    <trip id="veh133" depart="190.00" from="1106310171" to="325833350#1" departLane="best" type="veh_passenger" departSpeed="max"/>
    <trip id="veh134" depart="191.43" from="112028497" to="638541500#0" departLane="best" type="veh_passenger" departSpeed="max"/>
    <trip id="veh135" depart="192.85" from="36967442#2" to="638541500#0" departLane="best" type="veh_passenger"/>
    <trip id="veh136" depart="194.28" from="-1093707706" to="325833350#0" departLane="best" type="veh_passenger" departSpeed="max"/>
    <trip id="veh137" depart="195.71" from="691218619" to="464465211#5" departLane="best" type="veh_passenger" departSpeed="max"/>
    <trip id="veh138" depart="197.14" from="-1093707708#1" to="325833350#1" departLane="best" type="veh_passenger" departSpeed="max"/>
    <trip id="veh139" depart="198.57" from="464465211#1" to="1148434866" departLane="best" type="veh_passenger"/>
    <trip id="veh140" depart="200.00" from="-1014276813#1" to="763293421" departLane="best" type="veh_passenger" departSpeed="max"/>
    <trip id="veh141" depart="201.43" from="1106310171" to="1093707706" departLane="best" type="veh_passenger" departSpeed="max"/>
    <trip id="veh142" depart="202.85" from="1106310171" to="1014276813#1" departLane="best" type="veh_passenger" departSpeed="max"/>
    <trip id="veh143" depart="204.28" from="1106310171" to="325833350#1" departLane="best" type="veh_passenger" departSpeed="max"/>
    <trip id="veh144" depart="205.71" from="542070643#0" to="1093707706" departLane="best" type="veh_passenger"/>
    <trip id="veh145" depart="207.14" from="1182435824#0" to="638541502#1" departLane="best" type="veh_passenger" departSpeed="max"/>
    <trip id="veh146" depart="208.57" from="1106310171" to="36967442#1" departLane="best" type="veh_passenger" departSpeed="max"/>
    <trip id="veh147" depart="210.00" from="638541495#1" to="542070643#0" departLane="best" type="veh_passenger"/>
    <trip id="veh148" depart="211.43" from="1106310171" to="1346336050#2" departLane="best" type="veh_passenger" departSpeed="max"/>
    <trip id="veh149" depart="212.85" from="1106310171" to="91890605#1" departLane="best" type="veh_passenger" departSpeed="max"/>
    <trip id="veh150" depart="214.28" from="-1093707708#1" to="1166322823#1" departLane="best" type="veh_passenger" departSpeed="max"/>
    <trip id="veh151" depart="215.71" from="691218619" to="1093707706" departLane="best" type="veh_passenger" departSpeed="max"/>
    <trip id="veh152" depart="217.14" from="1182435824#0" to="263812623#2" departLane="best" type="veh_passenger" departSpeed="max"/>
    <trip id="veh153" depart="218.57" from="36967442#4" to="325833350#1" departLane="best" type="veh_passenger"/>
    <trip id="veh154" depart="220.00" from="691218619" to="-995154329#0" departLane="best" type="veh_passenger" departSpeed="max"/>
    <trip id="veh155" depart="221.43" from="1182435824#0" to="1101271052#2" departLane="best" type="veh_passenger" departSpeed="max"/>
    <trip id="veh156" depart="222.85" from="36967442#1" to="464465211#5" departLane="best" type="veh_passenger"/>
    <trip id="veh157" depart="224.28" from="112028497" to="1166322819#3" departLane="best" type="veh_passenger" departSpeed="max"/>
    <trip id="veh158" depart="225.71" from="36967442#2" to="464465211#3" departLane="best" type="veh_passenger"/>
    <trip id="veh159" depart="227.14" from="691218619" to="263812623#3" departLane="best" type="veh_passenger" departSpeed="max"/>
    <trip id="veh160" depart="228.57" from="542070643#0" to="325833350#1" departLane="best" type="veh_passenger"/>
    <trip id="veh161" depart="230.00" from="638541495#0" to="1148434866" departLane="best" type="veh_passenger"/>
    <trip id="veh162" depart="231.43" from="542070643#1" to="36967442#3" departLane="best" type="veh_passenger"/>
    <trip id="veh163" depart="232.85" from="1227534098#0" to="464465211#3" departLane="best" type="veh_passenger"/>
    <trip id="veh164" depart="234.28" from="691218619" to="1093707706" departLane="best" type="veh_passenger" departSpeed="max"/>
    <trip id="veh165" depart="235.71" from="1182435824#0" to="263812623#1" departLane="best" type="veh_passenger" departSpeed="max"/>
    <trip id="veh166" depart="237.14" from="691218619" to="542070643#0" departLane="best" type="veh_passenger" departSpeed="max"/>
    <trip id="veh167" depart="238.57" from="1106310171" to="1101271052#2" departLane="best" type="veh_passenger" departSpeed="max"/>
    <trip id="veh168" depart="240.00" from="1106310171" to="1014276813#1" departLane="best" type="veh_passenger" departSpeed="max"/>
    <trip id="veh169" depart="241.43" from="1182435824#0" to="1148434866" departLane="best" type="veh_passenger" departSpeed="max"/>
    <trip id="veh170" depart="242.85" from="1182435824#0" to="638541500#0" departLane="best" type="veh_passenger" departSpeed="max"/>
    <trip id="veh171" depart="244.28" from="542070643#0" to="1093707708#1" departLane="best" type="veh_passenger"/>
    <trip id="veh172" depart="245.71" from="1106310171" to="263812623#3" departLane="best" type="veh_passenger" departSpeed="max"/>
    <trip id="veh173" depart="247.14" from="691218619" to="464465211#3" departLane="best" type="veh_passenger" departSpeed="max"/>
    <trip id="veh174" depart="248.57" from="1182435824#0" to="1369024077#0" departLane="best" type="veh_passenger" departSpeed="max"/>
    <trip id="veh175" depart="250.00" from="112028497" to="464465211#3" departLane="best" type="veh_passenger" departSpeed="max"/>
    <trip id="veh176" depart="251.43" from="638541495#5" to="325833350#1" departLane="best" type="veh_passenger"/>
    <trip id="veh177" depart="252.85" from="112028497" to="1014276813#1" departLane="best" type="veh_passenger" departSpeed="max"/>
    <trip id="veh178" depart="254.28" from="112028497" to="1014276813#1" departLane="best" type="veh_passenger" departSpeed="max"/>
    <trip id="veh179" depart="255.71" from="691218619" to="464465211#5" departLane="best" type="veh_passenger" departSpeed="max"/>
    <trip id="veh180" depart="257.14" from="691218619" to="542070643#1" departLane="best" type="veh_passenger" departSpeed="max"/>
    <trip id="veh181" depart="258.57" from="172947338#2" to="464465211#3" departLane="best" type="veh_passenger"/>
    <trip id="veh182" depart="260.00" from="112028497" to="1227534098#0" departLane="best" type="veh_passenger" departSpeed="max"/>
    <trip id="veh183" depart="261.43" from="36967442#5" to="638541500#0" departLane="best" type="veh_passenger"/>
    <trip id="veh184" depart="262.85" from="1106310171" to="1093707708#1" departLane="best" type="veh_passenger" departSpeed="max"/>
    <trip id="veh185" depart="264.28" from="638541495#4" to="542070643#1" departLane="best" type="veh_passenger"/>
    <trip id="veh186" depart="265.71" from="691218619" to="464465211#5" departLane="best" type="veh_passenger" departSpeed="max"/>
    <trip id="veh187" depart="267.14" from="112028497" to="1014276813#1" departLane="best" type="veh_passenger" departSpeed="max"/>
    <trip id="veh188" depart="268.57" from="-1093707708#1" to="638541502#0" departLane="best" type="veh_passenger" departSpeed="max"/>
    <trip id="veh189" depart="270.00" from="36967442#2" to="1148434866" departLane="best" type="veh_passenger"/>
    <trip id="veh190" depart="271.43" from="1182435824#0" to="325833350#0" departLane="best" type="veh_passenger" departSpeed="max"/>
    <trip id="veh191" depart="272.85" from="691218619" to="91890605#2" departLane="best" type="veh_passenger" departSpeed="max"/>
    <trip id="veh192" depart="274.28" from="638541495#1" to="464465211#1" departLane="best" type="veh_passenger"/>
    <trip id="veh193" depart="275.71" from="691218619" to="1093707708#1" departLane="best" type="veh_passenger" departSpeed="max"/>
    <trip id="veh194" depart="277.14" from="1182435824#0" to="1166322823#1" departLane="best" type="veh_passenger" departSpeed="max"/>
    <trip id="veh195" depart="278.57" from="-1093707706" to="763293421" departLane="best" type="veh_passenger" departSpeed="max"/>
    <trip id="veh196" depart="280.00" from="-1014276813#1" to="325833350#1" departLane="best" type="veh_passenger" departSpeed="max"/>
    <trip id="veh197" depart="281.42" from="542070643#0" to="36967442#4" departLane="best" type="veh_passenger"/>
    <trip id="veh198" depart="282.85" from="691218619" to="1093707708#1" departLane="best" type="veh_passenger" departSpeed="max"/>
    <trip id="veh199" depart="284.28" from="1182435824#0" to="638541502#1" departLane="best" type="veh_passenger" departSpeed="max"/>
    <trip id="veh200" depart="285.71" from="1106310171" to="224621537#1" departLane="best" type="veh_passenger" departSpeed="max"/>
    <trip id="veh201" depart="287.14" from="691218619" to="263812623#3" departLane="best" type="veh_passenger" departSpeed="max"/>
    <trip id="veh202" depart="288.57" from="36967442#2" to="325833350#0" departLane="best" type="veh_passenger"/>
    <trip id="veh203" depart="290.00" from="36967442#4" to="464465211#5" departLane="best" type="veh_passenger"/>
    <trip id="veh204" depart="291.42" from="112028497" to="995154329#1" departLane="best" type="veh_passenger" departSpeed="max"/>
    <trip id="veh205" depart="292.85" from="112028497" to="638541500#0" departLane="best" type="veh_passenger" departSpeed="max"/>
    <trip id="veh206" depart="294.28" from="1106310171" to="1093707706" departLane="best" type="veh_passenger" departSpeed="max"/>
    <trip id="veh207" depart="295.71" from="1182435824#0" to="38522039" departLane="best" type="veh_passenger" departSpeed="max"/>
    <trip id="veh208" depart="297.14" from="1106310171" to="38522039" departLane="best" type="veh_passenger" departSpeed="max"/>
    <trip id="veh209" depart="298.57" from="1182435824#0" to="1166322819#3" departLane="best" type="veh_passenger" departSpeed="max"/>
    <trip id="veh210" depart="300.00" from="638541495#7" to="224621537#1" departLane="best" type="veh_passenger"/>
    <trip id="veh211" depart="301.42" from="1182435824#0" to="325833350#0" departLane="best" type="veh_passenger" departSpeed="max"/>
    <trip id="veh212" depart="302.85" from="691218619" to="263812623#1" departLane="best" type="veh_passenger" departSpeed="max"/>
    <trip id="veh213" depart="304.28" from="36967442#5" to="325833356#2" departLane="best" type="veh_passenger"/>
    <trip id="veh214" depart="305.71" from="91890605#1" to="638541500#0" departLane="best" type="veh_passenger"/>
    <trip id="veh215" depart="307.14" from="112028497" to="1227534098#0" departLane="best" type="veh_passenger" departSpeed="max"/>
    <trip id="veh216" depart="308.57" from="691218619" to="91890605#2" departLane="best" type="veh_passenger" departSpeed="max"/>
    <trip id="veh217" depart="310.00" from="542070643#1" to="91890605#2" departLane="best" type="veh_passenger"/>
    <trip id="veh218" depart="311.42" from="112028497" to="638541502#1" departLane="best" type="veh_passenger" departSpeed="max"/>
    <trip id="veh219" depart="312.85" from="1106310171" to="1227534098#0" departLane="best" type="veh_passenger" departSpeed="max"/>
    <trip id="veh220" depart="314.28" from="691218619" to="1093707706" departLane="best" type="veh_passenger" departSpeed="max"/>
    <trip id="veh221" depart="315.71" from="638541495#4" to="-995154329#2" departLane="best" type="veh_passenger"/>
    <trip id="veh222" depart="317.14" from="691218619" to="172947338#3" departLane="best" type="veh_passenger" departSpeed="max"/>
    <trip id="veh223" depart="318.57" from="112028497" to="464465211#3" departLane="best" type="veh_passenger" departSpeed="max"/>
    <trip id="veh224" depart="320.00" from="-1093707708#1" to="1166322819#3" departLane="best" type="veh_passenger" departSpeed="max"/>
    <trip id="veh225" depart="321.42" from="1101271052#2" to="1346336050#2" departLane="best" type="veh_passenger"/>
    <trip id="veh226" depart="322.85" from="172947338#2" to="464465211#3" departLane="best" type="veh_passenger"/>
    <trip id="veh227" depart="324.28" from="691218619" to="36967442#2" departLane="best" type="veh_passenger" departSpeed="max"/>
    <trip id="veh228" depart="325.71" from="691218619" to="263812623#1" departLane="best" type="veh_passenger" departSpeed="max"/>
    <trip id="veh229" depart="327.14" from="36967442#1" to="464465211#5" departLane="best" type="veh_passenger"/>