<?xml version="1.0" encoding="UTF-8"?>

<!-- generated on 2026-03-27 13:03:40.835024 by Eclipse SUMO osmWebWizard.py UNKNOWN
<configuration>
    <net-file value="/home/aman/Sumo/2026-03-27-13-03-19/osm.net.xml.gz"/>
    <output-trip-file value="/home/aman/Sumo/2026-03-27-13-03-19/osm.motorcycle.trips.xml"/>
    <route-file value="/home/aman/Sumo/2026-03-27-13-03-19/osm.motorcycle.rou.xml"/>
    <prefix value="motorcycle"/>
    <trip-attributes value="departLane=&quot;best&quot;"/>
    <fringe-start-attributes value="departSpeed=&quot;max&quot;"/>
    <vehicle-class value="motorcycle"/>
    <fringe-factor value="10"/>
    <edge-permission value="motorcycle"/>
    <via-edge-types value="highway.motorway,highway.motorway_link,highway.trunk_link,highway.primary_link,highway.secondary_link,highway.tertiary_link"/>
    <seed value="44"/>
    <max-distance value="1200.0"/>
    <remove-loops value="True"/>
    <insertion-density value="1200.0"/>
</configuration>
-->

<routes xmlns:xsi="http://www.w3.org/2001/XMLSchema-instance" xsi:noNamespaceSchemaLocation="http://sumo.dlr.de/xsd/routes_file.xsd">
    <vType id="motorcycle_motorcycle" vClass="motorcycle"/>
    <trip id="motorcycle0" depart="0.00" from="112028497" to="1227534098#0" departLane="best" type="motorcycle_motorcycle" departSpeed="max"/>
    <trip id="motorcycle1" depart="0.48" from="638541495#4" to="1014276813#1" departLane="best" type="motorcycle_motorcycle"/>
    <trip id="motorcycle2" depart="0.95" from="-1093707708#1" to="-1093707705#1" departLane="best" type="motorcycle_motorcycle" departSpeed="max"/>
    <trip id="motorcycle3" depart="1.43" from="-1093707706" to="-1014276813#0" departLane="best" type="motorcycle_motorcycle" departSpeed="max"/>
    <trip id="motorcycle4" depart="1.90" from="-1093707706" to="1166322819#3" departLane="best" type="motorcycle_motorcycle" departSpeed="max"/>
    <trip id="motorcycle5" depart="2.38" from="995154329#1" to="325833356#2" departLane="best" type="motorcycle_motorcycle"/>
    <trip id="motorcycle6" depart="2.86" from="112028497" to="1093707708#1" departLane="best" type="motorcycle_motorcycle" departSpeed="max"/>
    <trip id="motorcycle7" depart="3.33" from="-1014276813#1" to="542070643#2" departLane="best" type="motorcycle_motorcycle" departSpeed="max"/>
    <trip id="motorcycle8" depart="3.81" from="172947338#2" to="1014276813#1" departLane="best" type="motorcycle_motorcycle"/>
    <trip id="motorcycle9" depart="4.29" from="-1014276813#1" to="1014276813#1" departLane="best" type="motorcycle_motorcycle" departSpeed="max"/>
    <trip id="motorcycle10" depart="4.76" from="691218619" to="1014276813#1" departLane="best" type="motorcycle_motorcycle" departSpeed="max"/>
    <trip id="motorcycle11" depart="5.24" from="172947338#3" to="91890605#2" departLane="best" type="motorcycle_motorcycle"/>
    <trip id="motorcycle12" depart="5.71" from="-1014276813#1" to="1093707708#1" departLane="best" type="motorcycle_motorcycle" departSpeed="max"/>
    <trip id="motorcycle13" depart="6.19" from="1166322822" to="638541500#0" departLane="best" type="motorcycle_motorcycle" departSpeed="max"/>
    <trip id="motorcycle14" depart="6.67" from="-1093707708#1" to="1093707706" departLane="best" type="motorcycle_motorcycle" departSpeed="max"/>
    <trip id="motorcycle15" depart="7.14" from="-995154329#1" to="-995154329#0" departLane="best" type="motorcycle_motorcycle"/>
    <trip id="motorcycle16" depart="7.62" from="542070643#1" to="263812623#2" departLane="best" type="motorcycle_motorcycle"/>
    <trip id="motorcycle17" depart="8.10" from="1182435824#0" to="1166322823#1" departLane="best" type="motorcycle_motorcycle" departSpeed="max"/>
    <trip id="motorcycle18" depart="8.57" from="-1369024077#0" to="1093707708#1" departLane="best" type="motorcycle_motorcycle"/>
    <trip id="motorcycle19" depart="9.05" from="464465211#1" to="325833356#2" departLane="best" type="motorcycle_motorcycle"/>
    <trip id="motorcycle20" depart="9.52" from="1106310171" to="542070643#0" departLane="best" type="motorcycle_motorcycle" departSpeed="max"/>
    <trip id="motorcycle21" depart="10.00" from="542070643#2" to="-1369024077#0" departLane="best" type="motorcycle_motorcycle"/>
    <trip id="motorcycle22" depart="10.48" from="-1093707706" to="1093707705#1" departLane="best" type="motorcycle_motorcycle" departSpeed="max"/>
    <trip id="motorcycle23" depart="10.95" from="-1014276813#1" to="38522039" departLane="best" type="motorcycle_motorcycle" departSpeed="max"/>
    <trip id="motorcycle24" depart="11.43" from="995154329#2" to="1093707708#1" departLane="best" type="motorcycle_motorcycle"/>
    <trip id="motorcycle25" depart="11.90" from="-1093707708#1" to="1014276813#1" departLane="best" type="motorcycle_motorcycle" departSpeed="max"/>
    <trip id="motorcycle26" depart="12.38" from="1106310171" to="542070643#2" departLane="best" type="motorcycle_motorcycle" departSpeed="max"/>
    <trip id="motorcycle27" depart="12.86" from="1346336050#2" to="-995154329#1" departLane="best" type="motorcycle_motorcycle"/>
    <trip id="motorcycle28" depart="13.33" from="172947338#3" to="1014276813#1" departLane="best" type="motorcycle_motorcycle"/>
    <trip id="motorcycle29" depart="13.81" from="-1093707708#1" to="263812623#3" departLane="best" type="motorcycle_motorcycle" departSpeed="max"/>
    <trip id="motorcycle30" depart="14.29" from="542070643#2" to="263812623#1" departLane="best" type="motorcycle_motorcycle"/>
    <trip id="motorcycle31" depart="14.76" from="1106310171" to="263812623#3" departLane="best" type="motorcycle_motorcycle" departSpeed="max"/>
    <trip id="motorcycle32" depart="15.24" from="1101271052#1" to="-1014276813#0" departLane="best" type="motorcycle_motorcycle"/>
    <trip id="motorcycle33" depart="15.71" from="1101271052#1" to="325833356#2" departLane="best" type="motorcycle_motorcycle"/>
    <trip id="motorcycle34" depart="16.19" from="172947338#3" to="1014276813#1" departLane="best" type="motorcycle_motorcycle"/>
    <trip id="motorcycle35" depart="16.67" from="542070643#2" to="542070643#1" departLane="best" type="motorcycle_motorcycle"/>
    <trip id="motorcycle36" depart="17.14" from="1101271052#2" to="91890605#1" departLane="best" type="motorcycle_motorcycle"/>
    <trip id="motorcycle37" depart="17.62" from="1093707705#1" to="-995154329#1" departLane="best" type="motorcycle_motorcycle"/>
    <trip id="motorcycle38" depart="18.10" from="1227534098#0" to="1227534098#0" departLane="best" type="motorcycle_motorcycle"/>
    <trip id="motorcycle39" depart="18.57" from="1106310171" to="1093707708#1" departLane="best" type="motorcycle_motorcycle" departSpeed="max"/>
    <trip id="motorcycle40" depart="19.05" from="1182435824#0" to="763293421" departLane="best" type="motorcycle_motorcycle" departSpeed="max"/>
    <trip id="motorcycle41" depart="19.52" from="-1014276813#1" to="1093707706" departLane="best" type="motorcycle_motorcycle" departSpeed="max"/>
    <trip id="motorcycle42" depart="20.00" from="691218619" to="325833350#0" departLane="best" type="motorcycle_motorcycle" departSpeed="max"/>
    <trip id="motorcycle43" depart="20.48" from="-1014276813#1" to="1093707708#1" departLane="best" type="motorcycle_motorcycle" departSpeed="max"/>
    <trip id="motorcycle44" depart="20.95" from="36967442#3" to="1093707706" departLane="best" type="motorcycle_motorcycle"/>
    <trip id="motorcycle45" depart="21.43" from="1182435824#0" to="542070643#1" departLane="best" type="motorcycle_motorcycle" departSpeed="max"/>
    <trip id="motorcycle46" depart="21.90" from="-995154329#1" to="36967442#1" departLane="best" type="motorcycle_motorcycle"/>
    <trip id="motorcycle47" depart="22.38" from="1182435824#0" to="-995154329#2" departLane="best" type="motorcycle_motorcycle" departSpeed="max"/>
    <trip id="motorcycle48" depart="22.86" from="1101271052#1" to="1093707708#1" departLane="best" type="motorcycle_motorcycle"/>
    <trip id="motorcycle49" depart="23.33" from="-1093707706" to="763293421" departLane="best" type="motorcycle_motorcycle" departSpeed="max"/>
    <trip id="motorcycle50" depart="23.81" from="-995154329#2" to="1093707706" departLane="best" type="motorcycle_motorcycle"/>
    <trip id="motorcycle51" depart="24.29" from="1227534098#0" to="1166322823#0" departLane="best" type="motorcycle_motorcycle"/>
    <trip id="motorcycle52" depart="24.76" from="1106310171" to="1093707706" departLane="best" type="motorcycle_motorcycle" departSpeed="max"/>
    <trip id="motorcycle53" depart="25.24" from="1166322822" to="638541500#0" departLane="best" type="motorcycle_motorcycle" departSpeed="max"/>
    <trip id="motorcycle54" depart="25.71" from="-1093707705#0" to="638541500#0" departLane="best" type="motorcycle_motorcycle"/>
    <trip id="motorcycle55" depart="26.19" from="691218619" to="325833356#2" departLane="best" type="motorcycle_motorcycle" departSpeed="max"/>
    <trip id="motorcycle56" depart="26.67" from="464465211#2" to="1093707708#1" departLane="best" type="motorcycle_motorcycle"/>
    <trip id="motorcycle57" depart="27.14" from="691218619" to="36967442#5" departLane="best" type="motorcycle_motorcycle" departSpeed="max"/>
    <trip id="motorcycle58" depart="27.62" from="-1093707708#1" to="325833356#2" departLane="best" type="motorcycle_motorcycle" departSpeed="max"/>
    <trip id="motorcycle59" depart="28.09" from="1106310171" to="1166322823#1" departLane="best" type="motorcycle_motorcycle" departSpeed="max"/>
    <trip id="motorcycle60" depart="28.57" from="-1093707708#1" to="1014276813#1" departLane="best" type="motorcycle_motorcycle" departSpeed="max"/>
    <trip id="motorcycle61" depart="29.05" from="-1093707708#1" to="-1093707705#0" departLane="best" type="motorcycle_motorcycle" departSpeed="max"/>
    <trip id="motorcycle62" depart="29.52" from="-1093707706" to="1093707708#1" departLane="best" type="motorcycle_motorcycle" departSpeed="max"/>
    <trip id="motorcycle63" depart="30.00" from="1106310171" to="1014276813#1" departLane="best" type="motorcycle_motorcycle" departSpeed="max"/>
    <trip id="motorcycle64" depart="30.48" from="691218619" to="263812623#2" departLane="best" type="motorcycle_motorcycle" departSpeed="max"/>
    <trip id="motorcycle65" depart="30.95" from="325833356#2" to="325833356#2" departLane="best" type="motorcycle_motorcycle"/>
    <trip id="motorcycle66" depart="31.43" from="1106310171" to="172947338#3" departLane="best" type="motorcycle_motorcycle" departSpeed="max"/>
    <trip id="motorcycle67" depart="31.90" from="1106310171" to="325833350#0" departLane="best" type="motorcycle_motorcycle" departSpeed="max"/>
    <trip id="motorcycle68" depart="32.38" from="464465211#5" to="-1093707705#0" departLane="best" type="motorcycle_motorcycle"/>
    <trip id="motorcycle69" depart="32.86" from="464465211#1" to="1014276813#1" departLane="best" type="motorcycle_motorcycle"/>
    <trip id="motorcycle70" depart="33.33" from="-1014276813#1" to="-995154329#2" departLane="best" type="motorcycle_motorcycle" departSpeed="max"/>
    <trip id="motorcycle71" depart="33.81" from="691218619" to="1014276813#1" departLane="best" type="motorcycle_motorcycle" departSpeed="max"/>
    <trip id="motorcycle72" depart="34.29" from="1166322819#2" to="763293421" departLane="best" type="motorcycle_motorcycle"/>
    <trip id="motorcycle73" depart="34.76" from="-995154329#2" to="1093707706" departLane="best" type="motorcycle_motorcycle"/>
    <trip id="motorcycle74" depart="35.24" from="-1093707706" to="1093707706" departLane="best" type="motorcycle_motorcycle" departSpeed="max"/>
    <trip id="motorcycle75" depart="35.71" from="112028497" to="464465211#3" departLane="best" type="motorcycle_motorcycle" departSpeed="max"/>
    <trip id="motorcycle76" depart="36.19" from="-1093707708#1" to="1093707708#1" departLane="best" type="motorcycle_motorcycle" departSpeed="max"/>
    <trip id="motorcycle77" depart="36.67" from="38522039" to="325833356#2" departLane="best" type="motorcycle_motorcycle"/>
    <trip id="motorcycle78" depart="37.14" from="112028497" to="1093707708#1" departLane="best" type="motorcycle_motorcycle" departSpeed="max"/>
    <trip id="motorcycle79" depart="37.62" from="464465211#2" to="1093707706" departLane="best" type="motorcycle_motorcycle"/>
    <trip id="motorcycle80" depart="38.09" from="-1093707708#1" to="542070643#2" departLane="best" type="motorcycle_motorcycle" departSpeed="max"/>
    <trip id="motorcycle81" depart="38.57" from="-1093707708#1" to="-1369024077#0" departLane="best" type="motorcycle_motorcycle" departSpeed="max"/>
    <trip id="motorcycle82" depart="39.05" from="-1093707708#1" to="1093707708#1" departLane="best" type="motorcycle_motorcycle" departSpeed="max"/>
    <trip id="motorcycle83" depart="39.52" from="-1014276813#1" to="1093707706" departLane="best" type="motorcycle_motorcycle" departSpeed="max"/>
    <trip id="motorcycle84" depart="40.00" from="691218619" to="1093707708#1" departLane="best" type="motorcycle_motorcycle" departSpeed="max"/>
    <trip id="motorcycle85" depart="40.48" from="-1014276813#0" to="464465211#5" departLane="best" type="motorcycle_motorcycle"/>
    <trip id="motorcycle86" depart="40.95" from="1106310171" to="1014276813#1" departLane="best" type="motorcycle_motorcycle" departSpeed="max"/>
    <trip id="motorcycle87" depart="41.43" from="1106310171" to="36967442#2" departLane="best" type="motorcycle_motorcycle" departSpeed="max"/>
    <trip id="motorcycle88" depart="41.90" from="638541495#7" to="1093707706" departLane="best" type="motorcycle_motorcycle"/>
    <trip id="motorcycle89" depart="42.38" from="1182435824#0" to="1093707706" departLane="best" type="motorcycle_motorcycle" departSpeed="max"/>
    <trip id="motorcycle90" depart="42.86" from="1106310171" to="325833350#1" departLane="best" type="motorcycle_motorcycle" departSpeed="max"/>
    <trip id="motorcycle91" depart="43.33" from="691218619" to="1014276813#1" departLane="best" type="motorcycle_motorcycle" departSpeed="max"/>
    <trip id="motorcycle92" depart="43.81" from="464465211#1" to="1101271052#2" departLane="best" type="motorcycle_motorcycle"/>
    <trip id="motorcycle93" depart="44.29" from="691218619" to="-995154329#2" departLane="best" type="motorcycle_motorcycle" departSpeed="max"/>
    <trip id="motorcycle94" depart="44.76" from="112028497" to="1014276813#1" departLane="best" type="motorcycle_motorcycle" departSpeed="max"/>
    <trip id="motorcycle95" depart="45.24" from="1182435824#0" to="1093707708#1" departLane="best" type="motorcycle_motorcycle" departSpeed="max"/>
    <trip id="motorcycle96" depart="45.71" from="691218619" to="-995154329#0" departLane="best" type="motorcycle_motorcycle" departSpeed="max"/>
    <trip id="motorcycle97" depart="46.19" from="-1014276813#1" to="464465211#1" departLane="best" type="motorcycle_motorcycle" departSpeed="max"/>
    <trip id="motorcycle98" depart="46.67" from="1182435824#0" to="542070643#1" departLane="best" type="motorcycle_motorcycle" departSpeed="max"/>
    <trip id="motorcycle99" depart="47.14" from="1166322822" to="763293421" departLane="best" type="motorcycle_motorcycle" departSpeed="max"/>
    <trip id="motorcycle100" depart="47.62" from="1106310171" to="1093707706" departLane="best" type="motorcycle_motorcycle" departSpeed="max"/>
    <trip id="motorcycle101" depart="48.09" from="-1014276813#1" to="-1014276813#0" departLane="best" type="motorcycle_motorcycle" departSpeed="max"/>
    <trip id="motorcycle102" depart="48.57" from="-1014276813#1" to="36967442#4" departLane="best" type="motorcycle_motorcycle" departSpeed="max"/>
    <trip id="motorcycle103" depart="49.05" from="464465211#1" to="464465211#1" departLane="best" type="motorcycle_motorcycle"/>
    <trip id="motorcycle104" depart="49.52" from="224621537#1" to="172947338#2" departLane="best" type="motorcycle_motorcycle"/>
    <trip id="motorcycle105" depart="50.00" from="1166322819#2" to="325833356#2" departLane="best" type="motorcycle_motorcycle"/>
    <trip id="motorcycle106" depart="50.48" from="112028497" to="638541502#0" departLane="best" type="motorcycle_motorcycle" departSpeed="max"/>
    <trip id="motorcycle107" depart="50.95" from="1182435824#0" to="325833356#1" departLane="best" type="motorcycle_motorcycle" departSpeed="max"/>
    <trip id="motorcycle108" depart="51.43" from="691218619" to="995154329#1" departLane="best" type="motorcycle_motorcycle" departSpeed="max"/>
    <trip id="motorcycle109" depart="51.90" from="1182435824#0" to="1014276813#1" departLane="best" type="motorcycle_motorcycle" departSpeed="max"/>
    <trip id="motorcycle110" depart="52.38" from="1182435824#0" to="638541502#0" departLane="best" type="motorcycle_motorcycle" departSpeed="max"/>
    <trip id="motorcycle111" depart="52.86" from="-1093707708#1" to="1093707706" departLane="best" type="motorcycle_motorcycle" departSpeed="max"/>
    <trip id="motorcycle112" depart="53.33" from="1101271052#1" to="1093707706" departLane="best" type="motorcycle_motorcycle"/>
    <trip id="motorcycle113" depart="53.81" from="464465211#3" to="1166322823#1" departLane="best" type="motorcycle_motorcycle"/>
    <trip id="motorcycle114" depart="54.29" from="-1093707705#1" to="1166322819#3" departLane="best" type="motorcycle_motorcycle"/>
    <trip id="motorcycle115" depart="54.76" from="-1093707708#1" to="-1093707705#0" departLane="best" type="motorcycle_motorcycle" departSpeed="max"/>
    <trip id="motorcycle116" depart="55.24" from="-1014276813#1" to="1093707706" departLane="best" type="motorcycle_motorcycle" departSpeed="max"/>
    <trip id="motorcycle117" depart="55.71" from="-1093707708#1" to="1369024077#0" departLane="best" type="motorcycle_motorcycle" departSpeed="max"/>
    <trip id="motorcycle118" depart="56.19" from="1106310171" to="-1369024077#0" departLane="best" type="motorcycle_motorcycle" departSpeed="max"/>
    <trip id="motorcycle119" depart="56.67" from="1106310171" to="263812623#2" departLane="best" type="motorcycle_motorcycle" departSpeed="max"/>
    <trip id="motorcycle120" depart="57.14" from="1182435824#0" to="172947338#2" departLane="best" type="motorcycle_motorcycle" departSpeed="max"/>
    <trip id="motorcycle121" depart="57.62" from="-1093707708#1" to="-1369024077#0" departLane="best" type="motorcycle_motorcycle" departSpeed="max"/>
    <trip id="motorcycle122" depart="58.09" from="36967442#2" to="36967442#2" departLane="best" type="motorcycle_motorcycle"/>
    <trip id="motorcycle123" depart="58.57" from="1106310171" to="36967442#4" departLane="best" type="motorcycle_motorcycle" departSpeed="max"/>
    <trip id="motorcycle124" depart="59.05" from="1106310171" to="172947338#3" departLane="best" type="motorcycle_motorcycle" departSpeed="max"/>
    <trip id="motorcycle125" depart="59.52" from="691218619" to="1093707708#1" departLane="best" type="motorcycle_motorcycle" departSpeed="max"/>
    <trip id="motorcycle126" depart="60.00" from="172947338#2" to="995154329#1" departLane="best" type="motorcycle_motorcycle"/>
    <trip id="motorcycle127" depart="60.48" from="691218619" to="325833356#1" departLane="best" type="motorcycle_motorcycle" departSpeed="max"/>
    <trip id="motorcycle128" depart="60.95" from="1106310171" to="1093707706" departLane="best" type="motorcycle_motorcycle" departSpeed="max"/>
    <trip id="motorcycle129" depart="61.43" from="-1014276813#1" to="1014276813#0" departLane="best" type="motorcycle_motorcycle" departSpeed="max"/>
    <trip id="motorcycle130" depart="61.90" from="91890605#1" to="1346336050#2" departLane="best" type="motorcycle_motorcycle"/>
    <trip id="motorcycle131" depart="62.38" from="36967442#4" to="1093707706" departLane="best" type="motorcycle_motorcycle"/>
    <trip id="motorcycle132" depart="62.86" from="542070643#2" to="36967442#2" departLane="best" type="motorcycle_motorcycle"/>
    <trip id="motorcycle133" depart="63.33" from="638541495#7" to="1148434866" departLane="best" type="motorcycle_motorcycle"/>
    <trip id="motorcycle134" depart="63.81" from="691218619" to="1369024077#0" departLane="best" type="motorcycle_motorcycle" departSpeed="max"/>
    <trip id="motorcycle135" depart="64.28" from="-1093707706" to="638541500#0" departLane="best" type="motorcycle_motorcycle" departSpeed="max"/>
    <trip id="motorcycle136" depart="64.76" from="1106310171" to="638541502#0" departLane="best" type="motorcycle_motorcycle" departSpeed="max"/>
    <trip id="motorcycle137" depart="65.24" from="1182435824#0" to="1093707708#1" departLane="best" type="motorcycle_motorcycle" departSpeed="max"/>
    <trip id="motorcycle138" depart="65.71" from="-1093707705#0" to="-1369024077#0" departLane="best" type="motorcycle_motorcycle"/>
    <trip id="motorcycle139" depart="66.19" from="1106310171" to="-1093707705#0" departLane="best" type="motorcycle_motorcycle" departSpeed="max"/>
    <trip id="motorcycle140" depart="66.67" from="112028497" to="263812623#2" departLane="best" type="motorcycle_motorcycle" departSpeed="max"/>
    <trip id="motorcycle141" depart="67.14" from="224621537#1" to="638541500#0" departLane="best" type="motorcycle_motorcycle"/>
    <trip id="motorcycle142" depart="67.62" from="1106310171" to="91890605#1" departLane="best" type="motorcycle_motorcycle" departSpeed="max"/>
    <trip id="motorcycle143" depart="68.09" from="-1014276813#1" to="1014276813#1" departLane="best" type="motorcycle_motorcycle" departSpeed="max"/>
    <trip id="motorcycle144" depart="68.57" from="112028497" to="464465211#2" departLane="best" type="motorcycle_motorcycle" departSpeed="max"/>
    <trip id="motorcycle145" depart="69.05" from="1182435824#0" to="-1014276813#0" departLane="best" type="motorcycle_motorcycle" departSpeed="max"/>
    <trip id="motorcycle146" depart="69.52" from="112028497" to="263812623#3" departLane="best" type="motorcycle_motorcycle" departSpeed="max"/>
    <trip id="motorcycle147" depart="70.00" from="1014276813#0" to="1014276813#1" departLane="best" type="motorcycle_motorcycle"/>
    <trip id="motorcycle148" depart="70.48" from="995154329#1" to="763293421" departLane="best" type="motorcycle_motorcycle"/>
    <trip id="motorcycle149" depart="70.95" from="1106310171" to="-1093707705#1" departLane="best" type="motorcycle_motorcycle" departSpeed="max"/>
    <trip id="motorcycle150" depart="71.43" from="-1093707708#1" to="1093707708#1" departLane="best" type="motorcycle_motorcycle" departSpeed="max"/>
    <trip id="motorcycle151" depart="71.90" from="-1093707705#1" to="1093707706" departLane="best" type="motorcycle_motorcycle"/>
    <trip id="motorcycle152" depart="72.38" from="112028497" to="38522039" departLane="best" type="motorcycle_motorcycle" departSpeed="max"/>
    <trip id="motorcycle153" depart="72.86" from="-1093707706" to="263812623#2" departLane="best" type="motorcycle_motorcycle" departSpeed="max"/>
    <trip id="motorcycle154" depart="73.33" from="112028497" to="464465211#1" departLane="best" type="motorcycle_motorcycle" departSpeed="max"/>
    <trip id="motorcycle155" depart="73.81" from="542070643#1" to="-1093707705#0" departLane="best" type="motorcycle_motorcycle"/>
    <trip id="motorcycle156" depart="74.28" from="1106310171" to="1166322819#3" departLane="best" type="motorcycle_motorcycle" departSpeed="max"/>
    <trip id="motorcycle157" depart="74.76" from="1106310171" to="1093707708#1" departLane="best" type="motorcycle_motorcycle" departSpeed="max"/>
    <trip id="motorcycle158" depart="75.24" from="1182435824#0" to="1093707706" departLane="best" type="motorcycle_motorcycle" departSpeed="max"/>
    <trip id="motorcycle159" depart="75.71" from="638541495#4" to="1093707706" departLane="best" type="motorcycle_motorcycle"/>
    <trip id="motorcycle160" depart="76.19" from="-1093707708#1" to="1093707708#1" departLane="best" type="motorcycle_motorcycle" departSpeed="max"/>
    <trip id="motorcycle161" depart="76.67" from="-1093707706" to="638541502#0" departLane="best" type="motorcycle_motorcycle" departSpeed="max"/>
    <trip id="motorcycle162" depart="77.14" from="1106310171" to="1166322819#3" departLane="best" type="motorcycle_motorcycle" departSpeed="max"/>
    <trip id="motorcycle163" depart="77.62" from="-1093707705#0" to="36967442#1" departLane="best" type="motorcycle_motorcycle"/>
    <trip id="motorcycle164" depart="78.09" from="-1014276813#1" to="1014276813#1" departLane="best" type="motorcycle_motorcycle" departSpeed="max"/>
    <trip id="motorcycle165" depart="78.57" from="-995154329#2" to="-1014276813#0" departLane="best" type="motorcycle_motorcycle"/>
    <trip id="motorcycle166" depart="79.05" from="1106310171" to="-995154329#0" departLane="best" type="motorcycle_motorcycle" departSpeed="max"/>
    <trip id="motorcycle167" depart="79.52" from="691218619" to="1166322819#3" departLane="best" type="motorcycle_motorcycle" departSpeed="max"/>
    <trip id="motorcycle168" depart="80.00" from="-1014276813#1" to="36967442#5" departLane="best" type="motorcycle_motorcycle" departSpeed="max"/>
    <trip id="motorcycle169" depart="80.48" from="-1014276813#1" to="1014276813#1" departLane="best" type="motorcycle_motorcycle" departSpeed="max"/>
    <trip id="motorcycle170" depart="80.95" from="112028497" to="542070643#1" departLane="best" type="motorcycle_motorcycle" departSpeed="max"/>
    <trip id="motorcycle171" depart="81.43" from="691218619" to="91890605#2" departLane="best" type="motorcycle_motorcycle" departSpeed="max"/>
    <trip id="motorcycle172" depart="81.90" from="-1093707708#1" to="1093707708#1" departLane="best" type="motorcycle_motorcycle" departSpeed="max"/>
    <trip id="motorcycle173" depart="82.38" from="638541495#1" to="542070643#0" departLane="best" type="motorcycle_motorcycle"/>
    <trip id="motorcycle174" depart="82.86" from="691218619" to="-995154329#2" departLane="best" type="motorcycle_motorcycle" departSpeed="max"/>
    <trip id="motorcycle175" depart="83.33" from="-1014276813#1" to="1093707708#1" departLane="best" type="motorcycle_motorcycle" departSpeed="max"/>
    <trip id="motorcycle176" depart="83.81" from="638541495#0" to="325833356#2" departLane="best" type="motorcycle_motorcycle"/>
    <trip id="motorcycle177" depart="84.28" from="112028497" to="325833356#2" departLane="best" type="motorcycle_motorcycle" departSpeed="max"/>
    <trip id="motorcycle178" depart="84.76" from="1106310171" to="36967442#5" departLane="best" type="motorcycle_motorcycle" departSpeed="max"/>
    <trip id="motorcycle179" depart="85.24" from="-1093707706" to="172947338#3" departLane="best" type="motorcycle_motorcycle" departSpeed="max"/>
    <trip id="motorcycle180" depart="85.71" from="1106310171" to="1093707706" departLane="best" type="motorcycle_motorcycle" departSpeed="max"/>
    <trip id="motorcycle181" depart="86.19" from="1093707705#1" to="-1093707705#1" departLane="best" type="motorcycle_motorcycle"/>
    <trip id="motorcycle182" depart="86.67" from="-1093707706" to="325833356#1" departLane="best" type="motorcycle_motorcycle" departSpeed="max"/>
    <trip id="motorcycle183" depart="87.14" from="464465211#1" to="995154329#1" departLane="best" type="motorcycle_motorcycle"/>
    <trip id="motorcycle184" depart="87.62" from="112028497" to="36967442#5" departLane="best" type="motorcycle_motorcycle" departSpeed="max"/>
    <trip id="motorcycle185" depart="88.09" from="464465211#3" to="542070643#2" departLane="best" type="motorcycle_motorcycle"/>
    <trip id="motorcycle186" depart="88.57" from="464465211#3" to="1346336050#2" departLane="best" type="motorcycle_motorcycle"/>
    <trip id="motorcycle187" depart="89.05" from="-1093707708#1" to="-995154329#2" departLane="best" type="motorcycle_motorcycle" departSpeed="max"/>
    <trip id="motorcycle188" depart="89.52" from="36967442#5" to="325833350#1" departLane="best" type="motorcycle_motorcycle"/>
    <trip id="motorcycle189" depart="90.00" from="-1014276813#1" to="-1369024077#0" departLane="best" type="motorcycle_motorcycle" departSpeed="max"/>
    <trip id="motorcycle190" depart="90.48" from="1148434866" to="325833350#0" departLane="best" type="motorcycle_motorcycle"/>
    <trip id="motorcycle191" depart="90.95" from="-1093707706" to="36967442#1" departLane="best" type="motorcycle_motorcycle" departSpeed="max"/>
    <trip id="motorcycle192" depart="91.43" from="1106310171" to="325833350#0" departLane="best" type="motorcycle_motorcycle" departSpeed="max"/>
    <trip id="motorcycle193" depart="91.90" from="1101271052#1" to="1093707706" departLane="best" type="motorcycle_motorcycle"/>
    <trip id="motorcycle194" depart="92.38" from="-1093707706" to="325833356#2" departLane="best" type="motorcycle_motorcycle" departSpeed="max"/>
    <trip id="motorcycle195" depart="92.86" from="172947338#3" to="-995154329#1" departLane="best" type="motorcycle_motorcycle"/>
    <trip id="motorcycle196" depart="93.33" from="-1093707706" to="542070643#2" departLane="best" type="motorcycle_motorcycle" departSpeed="max"/>
    <trip id="motorcycle197" depart="93.81" from="1014276813#0" to="638541502#0" departLane="best" type="motorcycle_motorcycle"/>
    <trip id="motorcycle198" depart="94.28" from="91890605#1" to="464465211#5" departLane="best" type="motorcycle_motorcycle"/>
    <trip id="motorcycle199" depart="94.76" from="-1093707706" to="1014276813#1" departLane="best" type="motorcycle_motorcycle" departSpeed="max"/>
    <trip id="motorcycle200" depart="95.24" from="542070643#1" to="1093707708#1" departLane="best" type="motorcycle_motorcycle"/>
    <trip id="motorcycle201" depart="95.71" from="-1014276813#1" to="1014276813#1" departLane="best" type="motorcycle_motorcycle" departSpeed="max"/>
    <trip id="motorcycle202" depart="96.19" from="1106310171" to="1093707706" departLane="best" type="motorcycle_motorcycle" departSpeed="max"/>
    <trip id="motorcycle203" depart="96.67" from="-1014276813#1" to="36967442#2" departLane="best" type="motorcycle_motorcycle" departSpeed="max"/>
    <trip id="motorcycle204" depart="97.14" from="-1014276813#1" to="1093707706" departLane="best" type="motorcycle_motorcycle" departSpeed="max"/>