<?xml version="1.0" encoding="UTF-8"?>

<!-- generated on 2026-03-27 13:03:44.813187 by Eclipse SUMO osmWebWizard.py UNKNOWN
<configuration>
    <net-file value="/home/aman/Sumo/2026-03-27-13-03-19/osm.net.xml.gz"/>
    <additional-files value="/home/aman/Sumo/2026-03-27-13-03-19/osm_stops.add.xml,/home/aman/Sumo/2026-03-27-13-03-19/osm_pt.rou.xml"/>
    <output-trip-file value="/home/aman/Sumo/2026-03-27-13-03-19/osm.pedestrian.trips.xml"/>
    <route-file value="/home/aman/Sumo/2026-03-27-13-03-19/osm.pedestrian.rou.xml"/>
    <persontrips value="True"/>
    <persontrip.walk-opposite-factor value="0.8"/>
    <prefix value="ped"/>
    <trip-attributes value="modes=&quot;public&quot;"/>
    <vehicle-class value="pedestrian"/>
    <fringe-factor value="2"/>
    <seed value="46"/>
    <insertion-density value="200.0"/>
    <duarouter-weights.tls-penalty value="20"/>
</configuration>
-->

<routes xmlns:xsi="http://www.w3.org/2001/XMLSchema-instance" xsi:noNamespaceSchemaLocation="http://sumo.dlr.de/xsd/routes_file.xsd">
    <vType id="ped_pedestrian" vClass="pedestrian"/>
    <person id="ped0" depart="0.00" type="ped_pedestrian">
        <personTrip from="1467828598#0" to="1218055036#0" modes="public"/>
    </person>
    <person id="ped1" depart="2.58" type="ped_pedestrian">
        <personTrip from="1316371143" to="1466955039#1" modes="public"/>
    </person>
    <person id="ped2" depart="5.16" type="ped_pedestrian">
        <personTrip from="1106310160#2" to="1276784687#1" modes="public"/>
    </person>
    <person id="ped3" depart="7.74" type="ped_pedestrian">
        <personTrip from="1307896618#0" to="378505145#0" modes="public"/>
    </person>
    <person id="ped4" depart="10.31" type="ped_pedestrian">
        <personTrip from="-1093134867#1" to="-1317053754#0" modes="public"/>
    </person>
    <person id="ped5" depart="12.89" type="ped_pedestrian">
        <personTrip from="1106310199#1" to="1466955035#0" modes="public"/>
    </person>
    <person id="ped6" depart="15.47" type="ped_pedestrian">
        <personTrip from="1466955035#4" to="1086201530#1" modes="public"/>
    </person>
    <person id="ped7" depart="18.05" type="ped_pedestrian">
        <personTrip from="1467828600#3" to="1282213220" modes="public"/>
    </person>
    <person id="ped8" depart="20.63" type="ped_pedestrian">
        <personTrip from="718411455#3" to="1467828601#3" modes="public"/>
    </person>
    <person id="ped9" depart="23.21" type="ped_pedestrian">
        <personTrip from="-1466669641#0" to="719591070" modes="public"/>
    </person>
    <person id="ped10" depart="25.79" type="ped_pedestrian">
        <personTrip from="1232466346#0" to="1087940505#0" modes="public"/>
    </person>
    <person id="ped11" depart="28.36" type="ped_pedestrian">
        <personTrip from="1232466340#0" to="-1370473571#1" modes="public"/>
    </person>
    <person id="ped12" depart="30.94" type="ped_pedestrian">
        <personTrip from="1350604730#0" to="1306875951" modes="public"/>
    </person>
    <person id="ped13" depart="33.52" type="ped_pedestrian">
        <personTrip from="-638541495#4" to="1106310161#0" modes="public"/>
    </person>
    <person id="ped14" depart="36.10" type="ped_pedestrian">
        <personTrip from="1276784685#1" to="1460426540#1" modes="public"/>
    </person>
    <person id="ped15" depart="38.68" type="ped_pedestrian">
        <personTrip from="1106310163#1" to="-638541495#8" modes="public"/>
    </person>
    <person id="ped16" depart="41.26" type="ped_pedestrian">
        <personTrip from="1217769108" to="-1317053754#0" modes="public"/>
    </person>
    <person id="ped17" depart="43.84" type="ped_pedestrian">
        <personTrip from="1217769099" to="1466955051#2" modes="public"/>
    </person>
    <person id="ped18" depart="46.41" type="ped_pedestrian">
        <personTrip from="1093129464" to="1106310172#2" modes="public"/>
    </person>
    <person id="ped19" depart="48.99" type="ped_pedestrian">
        <personTrip from="-638541495#8" to="1106310161#5" modes="public"/>
    </person>
    <person id="ped20" depart="51.57" type="ped_pedestrian">
        <personTrip from="1316371144#6" to="1347077861#3" modes="public"/>
    </person>
    <person id="ped21" depart="54.15" type="ped_pedestrian">
        <personTrip from="1346337597#1" to="-1316573903" modes="public"/>
    </person>
    <person id="ped22" depart="56.73" type="ped_pedestrian">
        <personTrip from="1106310163#3" to="-777762687#0" modes="public"/>
    </person>
    <person id="ped23" depart="59.31" type="ped_pedestrian">
        <personTrip from="1306875953" to="1217769112#0" modes="public"/>
    </person>
    <person id="ped24" depart="61.89" type="ped_pedestrian">
        <personTrip from="1350604730#1" to="1306875954#2" modes="public"/>
    </person>
    <person id="ped25" depart="64.47" type="ped_pedestrian">
        <personTrip from="1307896618#0" to="1087940507#1" modes="public"/>
    </person>
    <person id="ped26" depart="67.04" type="ped_pedestrian">
        <personTrip from="1282213222#1" to="-1316573906" modes="public"/>
    </person>
    <person id="ped27" depart="69.62" type="ped_pedestrian">
        <personTrip from="-638541495#1" to="1466955039#1" modes="public"/>
    </person>
    <person id="ped28" depart="72.20" type="ped_pedestrian">
        <personTrip from="1087940505#2" to="-1053381292" modes="public"/>
    </person>
    <person id="ped29" depart="74.78" type="ped_pedestrian">
        <personTrip from="1347077861#3" to="1093129467#0" modes="public"/>
    </person>
    <person id="ped30" depart="77.36" type="ped_pedestrian">
        <personTrip from="1106310172#0" to="1307896618#0" modes="public"/>
    </person>
    <person id="ped31" depart="79.94" type="ped_pedestrian">
        <personTrip from="369295567#1" to="-1093129468#1" modes="public"/>
    </person>
    <person id="ped32" depart="82.52" type="ped_pedestrian">
        <personTrip from="1346337591#1" to="-1093134868#1" modes="public"/>
    </person>
    <person id="ped33" depart="85.09" type="ped_pedestrian">
        <personTrip from="-1370473571#1" to="1218055035" modes="public"/>
    </person>
    <person id="ped34" depart="87.67" type="ped_pedestrian">
        <personTrip from="1346337591#1" to="1086201530#1" modes="public"/>
    </person>
    <person id="ped35" depart="90.25" type="ped_pedestrian">
        <personTrip from="1217769112#2" to="1466669618#1" modes="public"/>
    </person>
    <person id="ped36" depart="92.83" type="ped_pedestrian">
        <personTrip from="1466669641#0" to="1347077861#7" modes="public"/>
    </person>
    <person id="ped37" depart="95.41" type="ped_pedestrian">
        <personTrip from="1232466340#1" to="1347077861#1" modes="public"/>
    </person>
    <person id="ped38" depart="97.99" type="ped_pedestrian">
        <personTrip from="1086201531#0" to="1218055034#0" modes="public"/>
    </person>
    <person id="ped39" depart="100.57" type="ped_pedestrian">
        <personTrip from="1106310172#3" to="1086201530#0" modes="public"/>
    </person>
    <person id="ped40" depart="103.14" type="ped_pedestrian">
        <personTrip from="-1165382874" to="-1307896618#0" modes="public"/>
    </person>
    <person id="ped41" depart="105.72" type="ped_pedestrian">
        <personTrip from="777762687#0" to="1217769112#3" modes="public"/>
    </person>
    <person id="ped42" depart="108.30" type="ped_pedestrian">
        <personTrip from="1106310199#1" to="1346337593#2" modes="public"/>
    </person>
    <person id="ped43" depart="110.88" type="ped_pedestrian">
        <personTrip from="1347077861#6" to="1467828598#1" modes="public"/>
    </person>
    <person id="ped44" depart="113.46" type="ped_pedestrian">
        <personTrip from="1467828600#2" to="-1316371143" modes="public"/>
    </person>
    <person id="ped45" depart="116.04" type="ped_pedestrian">
        <personTrip from="1106310161#3" to="1218055034#2" modes="public"/>
    </person>
    <person id="ped46" depart="118.62" type="ped_pedestrian">
        <personTrip from="1106310172#2" to="1306875954#0" modes="public"/>
    </person>
    <person id="ped47" depart="121.19" type="ped_pedestrian">
        <personTrip from="1106310161#2" to="1467828598#2" modes="public"/>
    </person>
    <person id="ped48" depart="123.77" type="ped_pedestrian">
        <personTrip from="1165382876" to="1467828598#1" modes="public"/>
    </person>
    <person id="ped49" depart="126.35" type="ped_pedestrian">
        <personTrip from="1467828601#2" to="1346337594#1" modes="public"/>
    </person>
    <person id="ped50" depart="128.93" type="ped_pedestrian">
        <personTrip from="1106310163#0" to="-1316371143" modes="public"/>
    </person>
    <person id="ped51" depart="131.51" type="ped_pedestrian">
        <personTrip from="991531596#2" to="1467828601#1" modes="public"/>
    </person>
    <person id="ped52" depart="134.09" type="ped_pedestrian">
        <personTrip from="1232466347" to="-1316563149" modes="public"/>
    </person>
    <person id="ped53" depart="136.67" type="ped_pedestrian">
        <personTrip from="1350604736" to="1106310172#1" modes="public"/>
    </person>
    <person id="ped54" depart="139.24" type="ped_pedestrian">
        <personTrip from="1232466325" to="777762687#1" modes="public"/>
    </person>
    <person id="ped55" depart="141.82" type="ped_pedestrian">
        <personTrip from="1467828600#3" to="1466955035#5" modes="public"/>
    </person>
    <person id="ped56" depart="144.40" type="ped_pedestrian">
        <personTrip from="-1316573906" to="1346337592" modes="public"/>
    </person>
    <person id="ped57" depart="146.98" type="ped_pedestrian">
        <personTrip from="1316371144#5" to="1347077861#5" modes="public"/>
    </person>
    <person id="ped58" depart="149.56" type="ped_pedestrian">
        <personTrip from="-1093129467#0" to="1467828600#2" modes="public"/>
    </person>
    <person id="ped59" depart="152.14" type="ped_pedestrian">
        <personTrip from="1087940505#1" to="-1053381292" modes="public"/>
    </person>
    <person id="ped60" depart="154.72" type="ped_pedestrian">
        <personTrip from="1346337593#2" to="1347077862#1" modes="public"/>
    </person>
    <person id="ped61" depart="157.29" type="ped_pedestrian">
        <personTrip from="1347077861#5" to="-638541495#0" modes="public"/>
    </person>
    <person id="ped62" depart="159.87" type="ped_pedestrian">
        <personTrip from="1106310160#2" to="1306875951" modes="public"/>
    </person>
    <person id="ped63" depart="162.45" type="ped_pedestrian">
        <personTrip from="1316371144#5" to="1347077867" modes="public"/>
    </person>
    <person id="ped64" depart="165.03" type="ped_pedestrian">
        <personTrip from="-1093129467#0" to="1346337592" modes="public"/>
    </person>
    <person id="ped65" depart="167.61" type="ped_pedestrian">
        <personTrip from="1093134868#0" to="1217769101#1" modes="public"/>
    </person>
    <person id="ped66" depart="170.19" type="ped_pedestrian">
        <personTrip from="1086201532#1" to="1276784685#0" modes="public"/>
    </person>
    <person id="ped67" depart="172.77" type="ped_pedestrian">
        <personTrip from="1106310161#5" to="1316573906" modes="public"/>
    </person>
    <person id="ped68" depart="175.34" type="ped_pedestrian">
        <personTrip from="1165382876" to="1106310172#1" modes="public"/>
    </person>
    <person id="ped69" depart="177.92" type="ped_pedestrian">
        <personTrip from="1106310167" to="991531596#2" modes="public"/>
    </person>
    <person id="ped70" depart="180.50" type="ped_pedestrian">
        <personTrip from="1316371144#1" to="1466955051#0" modes="public"/>
    </person>
    <person id="ped71" depart="183.08" type="ped_pedestrian">
        <personTrip from="1317550621" to="991531596#0" modes="public"/>
    </person>
    <person id="ped72" depart="185.66" type="ped_pedestrian">
        <personTrip from="1232466347" to="1232466346#1" modes="public"/>
    </person>
    <person id="ped73" depart="188.24" type="ped_pedestrian">
        <personTrip from="1106310163#0" to="1106310161#3" modes="public"/>
    </person>
    <person id="ped74" depart="190.82" type="ped_pedestrian">
        <personTrip from="1467828600#1" to="1232466347" modes="public"/>
    </person>
    <person id="ped75" depart="193.40" type="ped_pedestrian">
        <personTrip from="1346337592" to="1467828601#3" modes="public"/>
    </person>
    <person id="ped76" depart="195.97" type="ped_pedestrian">
        <personTrip from="1282213220" to="1093129466#1" modes="public"/>
    </person>
    <person id="ped77" depart="198.55" type="ped_pedestrian">
        <personTrip from="1347077861#2" to="1466669618#4" modes="public"/>
    </person>
    <person id="ped78" depart="201.13" type="ped_pedestrian">
        <personTrip from="1467828602#1" to="1232466325" modes="public"/>
    </person>
    <person id="ped79" depart="203.71" type="ped_pedestrian">
        <personTrip from="-777762687#0" to="1346337597#2" modes="public"/>
    </person>
    <person id="ped80" depart="206.29" type="ped_pedestrian">
        <personTrip from="1466669618#3" to="-1182435824#0" modes="public"/>
    </person>
    <person id="ped81" depart="208.87" type="ped_pedestrian">
        <personTrip from="1466669618#8" to="1466955035#2" modes="public"/>
    </person>
    <person id="ped82" depart="211.45" type="ped_pedestrian">
        <personTrip from="-1316573903" to="1316563146#1" modes="public"/>
    </person>
    <person id="ped83" depart="214.02" type="ped_pedestrian">
        <personTrip from="-638541495#4" to="1276784687#1" modes="public"/>
    </person>
    <person id="ped84" depart="216.60" type="ped_pedestrian">
        <personTrip from="1106310163#2" to="1276784683#1" modes="public"/>
    </person>
    <person id="ped85" depart="219.18" type="ped_pedestrian">
        <personTrip from="1316371146" to="1466669618#1" modes="public"/>
    </person>
    <person id="ped86" depart="221.76" type="ped_pedestrian">
        <personTrip from="1232466340#0" to="1086201532#1" modes="public"/>
    </person>
    <person id="ped87" depart="224.34" type="ped_pedestrian">
        <personTrip from="1165382876" to="1218055038#0" modes="public"/>
    </person>
    <person id="ped88" depart="226.92" type="ped_pedestrian">
        <personTrip from="1217769101#0" to="1093134868#0" modes="public"/>
    </person>
    <person id="ped89" depart="229.50" type="ped_pedestrian">
        <personTrip from="991531596#0" to="1217769109#2" modes="public"/>
    </person>
    <person id="ped90" depart="232.07" type="ped_pedestrian">
        <personTrip from="-1053381292" to="1106310161#4" modes="public"/>
    </person>
    <person id="ped91" depart="234.65" type="ped_pedestrian">
        <personTrip from="1232466344" to="-1276784686#0" modes="public"/>
    </person>
    <person id="ped92" depart="237.23" type="ped_pedestrian">
        <personTrip from="1217769099" to="1467828600#2" modes="public"/>
    </person>
    <person id="ped93" depart="239.81" type="ped_pedestrian">
        <personTrip from="1086201530#1" to="-638541495#1" modes="public"/>
    </person>
    <person id="ped94" depart="242.39" type="ped_pedestrian">
        <personTrip from="1232466329" to="-1093129468#1" modes="public"/>
    </person>
    <person id="ped95" depart="244.97" type="ped_pedestrian">
        <personTrip from="1467828600#2" to="1466955035#1" modes="public"/>
    </person>
    <person id="ped96" depart="247.55" type="ped_pedestrian">
        <personTrip from="1086201532#1" to="1466955051#2" modes="public"/>
    </person>
    <person id="ped97" depart="250.12" type="ped_pedestrian">
        <personTrip from="777762687#0" to="1370473571#1" modes="public"/>
    </person>
    <person id="ped98" depart="252.70" type="ped_pedestrian">
        <personTrip from="1106310161#1" to="1232466346#1" modes="public"/>
    </person>
    <person id="ped99" depart="255.28" type="ped_pedestrian">
        <personTrip from="1093129466#0" to="1466955035#2" modes="public"/>
    </person>
    <person id="ped100" depart="257.86" type="ped_pedestrian">
        <personTrip from="1218055034#0" to="1346337591#0" modes="public"/>
    </person>
    <person id="ped101" depart="260.44" type="ped_pedestrian">
        <personTrip from="1218055034#2" to="718411455#3" modes="public"/>
    </person>
    <person id="ped102" depart="263.02" type="ped_pedestrian">
        <personTrip from="1116243991" to="1466955051#0" modes="public"/>
    </person>
    <person id="ped103" depart="265.60" type="ped_pedestrian">
        <personTrip from="1466955051#2" to="1317053754#1" modes="public"/>
    </person>
    <person id="ped104" depart="268.17" type="ped_pedestrian">
        <personTrip from="-1316573906" to="1467828602#1" modes="public"/>
    </person>
    <person id="ped105" depart="270.75" type="ped_pedestrian">
        <personTrip from="1087940505#0" to="-1466669641#0" modes="public"/>
    </person>
    <person id="ped106" depart="273.33" type="ped_pedestrian">
        <personTrip from="1466955039#1" to="1093129466#2" modes="public"/>
    </person>
    <person id="ped107" depart="275.91" type="ped_pedestrian">
        <personTrip from="-1093134867#1" to="1466955051#1" modes="public"/>
    </person>
    <person id="ped108" depart="278.49" type="ped_pedestrian">
        <personTrip from="1467828601#1" to="1217769108" modes="public"/>
    </person>
    <person id="ped109" depart="281.07" type="ped_pedestrian">
        <personTrip from="1217769109#2" to="1347077861#7" modes="public"/>
    </person>
    <person id="ped110" depart="283.65" type="ped_pedestrian">
        <personTrip from="1347077861#6" to="1106310167" modes="public"/>
    </person>
    <person id="ped111" depart="286.22" type="ped_pedestrian">
        <personTrip from="-1316371143" to="1086201530#0" modes="public"/>
    </person>
    <person id="ped112" depart="288.80" type="ped_pedestrian">
        <personTrip from="1106310163#0" to="-1093129468#0" modes="public"/>
    </person>
    <person id="ped113" depart="291.38" type="ped_pedestrian">
        <personTrip from="1347077861#7" to="1218055034#0" modes="public"/>
    </person>
    <person id="ped114" depart="293.96" type="ped_pedestrian">
        <personTrip from="1282213221" to="1106310162#0" modes="public"/>
    </person>
    <person id="ped115" depart="296.54" type="ped_pedestrian">
        <personTrip from="1217769112#1" to="1346337601#2" modes="public"/>
    </person>
    <person id="ped116" depart="299.12" type="ped_pedestrian">
        <personTrip from="1466955051#4" to="1466955035#1" modes="public"/>
    </person>
    <person id="ped117" depart="301.70" type="ped_pedestrian">
        <personTrip from="1276784686#2" to="1466955035#3" modes="public"/>
    </person>
    <person id="ped118" depart="304.27" type="ped_pedestrian">
        <personTrip from="1106310172#0" to="1316573903" modes="public"/>
    </person>
    <person id="ped119" depart="306.85" type="ped_pedestrian">
        <personTrip from="1106310163#3" to="1467828598#1" modes="public"/>
    </person>
    <person id="ped120" depart="309.43" type="ped_pedestrian">
        <personTrip from="1218055034#0" to="-1165382874" modes="public"/>
    </person>
    <person id="ped121" depart="312.01" type="ped_pedestrian">
        <personTrip from="1466955039#0" to="1466955035#1" modes="public"/>
    </person>
    <person id="ped122" depart="314.59" type="ped_pedestrian">
        <personTrip from="1466955051#3" to="-1316371143" modes="public"/>
    </person>
    <person id="ped123" depart="317.17" type="ped_pedestrian">
        <personTrip from="1106310172#2" to="-1276784686#0" modes="public"/>
    </person>
    <person id="ped124" depart="319.75" type="ped_pedestrian">
        <personTrip from="-1093134867#2" to="1232466326" modes="public"/>
    </person>
    <person id="ped125" depart="322.33" type="ped_pedestrian">
        <personTrip from="1316371144#3" to="-1093134868#1" modes="public"/>
    </person>
    <person id="ped126" depart="324.90" type="ped_pedestrian">
        <personTrip from="1346337597#1" to="1217769112#0" modes="public"/>
    </person>
    <person id="ped127" depart="327.48" type="ped_pedestrian">
        <personTrip from="1086201530#1" to="1317053754#0" modes="public"/>
    </person>
    <person id="ped128" depart="330.06" type="ped_pedestrian">
        <personTrip from="1218055038#2" to="1217769111" modes="public"/>
    </person>
    <person id="ped129" depart="332.64" type="ped_pedestrian">
        <personTrip from="378505145#2" to="1307896618#0" modes="public"/>
    </person>
    <person id="ped130" depart="335.22" type="ped_pedestrian">
        <personTrip from="1217769112#0" to="1306875951" modes="public"/>
    </person>
    <person id="ped131" depart="337.80" type="ped_pedestrian">
        <personTrip from="1467828602#1" to="1087940505#1" modes="public"/>
    </person>
    <person id="ped132" depart="340.38" type="ped_pedestrian">
        <personTrip from="1346337598#2" to="378505145#1" modes="public"/>
    </person>
    <person id="ped133" depart="342.95" type="ped_pedestrian">
        <personTrip from="1346337595" to="-719591070" modes="public"/>
    </person>
    <person id="ped134" depart="345.53" type="ped_pedestrian">
        <personTrip from="1466669618#4" to="1276784688" modes="public"/>
    </person>
    <person id="ped135" depart="348.11" type="ped_pedestrian">
        <personTrip from="1093129464" to="1347077861#1" modes="public"/>
    </person>
    <person id="ped136" depart="350.69" type="ped_pedestrian">
        <personTrip from="1466955051#3" to="1347077861#8" modes="public"/>
    </person>
    <person id="ped137" depart="353.27" type="ped_pedestrian">
        <personTrip from="378505145#2" to="1086201532#2" modes="public"/>
    </person>
    <person id="ped138" depart="355.85" type="ped_pedestrian">
        <personTrip from="1217769108" to="1282213222#1" modes="public"/>
    </person>
    <person id="ped139" depart="358.43" type="ped_pedestrian">
        <personTrip from="1466955035#2" to="1350604730#1" modes="public"/>
    </person>
    <person id="ped140" depart="361.00" type="ped_pedestrian">
        <personTrip from="1276784686#0" to="1093129470#0" modes="public"/>
    </person>
    <person id="ped141" depart="363.58" type="ped_pedestrian">
        <personTrip from="1276784685#0" to="1467828601#2" modes="public"/>
    </person>
    <person id="ped142" depart="366.16" type="ped_pedestrian">
        <personTrip from="1466955051#2" to="1106310161#5" modes="public"/>
    </person>
    <person id="ped143" depart="368.74" type="ped_pedestrian">
        <personTrip from="-1276784686#2" to="1218055038#2" modes="public"/>
    </person>
    <person id="ped144" depart="371.32" type="ped_pedestrian">
        <personTrip from="1316371144#6" to="1467828601#3" modes="public"/>
    </person>
    <person id="ped145" depart="373.90" type="ped_pedestrian">
        <personTrip from="1467828600#1" to="1306875954#0" modes="public"/>
    </person>
    <person id="ped146" depart="376.48" type="ped_pedestrian">
        <personTrip from="1106310163#2" to="1466669618#3" modes="public"/>
    </person>
    <person id="ped147" depart="379.05" type="ped_pedestrian">
        <personTrip from="1306875954#0" to="-638541495#1" modes="public"/>
    </person>
    <person id="ped148" depart="381.63" type="ped_pedestrian">
        <personTrip from="1232466329" to="1316371144#7" modes="public"/>
    </person>
    <person id="ped149" depart="384.21" type="ped_pedestrian">
        <personTrip from="1218055037#2" to="1306875955" modes="public"/>
    </person>
    <person id="ped150" depart="386.79" type="ped_pedestrian">
        <personTrip from="1460426540#1" to="1467828600#1" modes="public"/>
    </person>
    <person id="ped151" depart="389.37" type="ped_pedestrian">
        <personTrip from="1306875954#1" to="1086201531#0" modes="public"/>
    </person>
    <person id="ped152" depart="391.95" type="ped_pedestrian">
        <personTrip from="777762687#0" to="1466669618#5" modes="public"/>
    </person>
    <person id="ped153" depart="394.53" type="ped_pedestrian">
        <personTrip from="1232466344" to="1276784686#2" modes="public"/>
    </person>
    <person id="ped154" depart="397.10" type="ped_pedestrian">
        <personTrip from="434696561#1" to="-1307896618#0" modes="public"/>
    </person>
    <person id="ped155" depart="399.68" type="ped_pedestrian">
        <personTrip from="1317550621" to="1276784685#0" modes="public"/>
    </person>
    <person id="ped156" depart="402.26" type="ped_pedestrian">
        <personTrip from="991531596#1" to="1093129464" modes="public"/>
    </person>
    <person id="ped157" depart="404.84" type="ped_pedestrian">
        <personTrip from="1467828601#1" to="1093129466#2" modes="public"/>
    </person>
    <person id="ped158" depart="407.42" type="ped_pedestrian">
        <personTrip from="1217769110" to="1466955039#0" modes="public"/>
    </person>
    <person id="ped159" depart="410.00" type="ped_pedestrian">
        <personTrip from="1218055035" to="1093129470#1" modes="public"/>
    </person>
    <person id="ped160" depart="412.58" type="ped_pedestrian">
        <personTrip from="1106310167" to="1232466330#0" modes="public"/>
    </person>
    <person id="ped161" depart="415.15" type="ped_pedestrian">
        <personTrip from="-638541495#4" to="434696561#1" modes="public"/>
    </person>
    <person id="ped162" depart="417.73" type="ped_pedestrian">
        <personTrip from="1276784683#1" to="1217769101#0" modes="public"/>
    </person>
    <person id="ped163" depart="420.31" type="ped_pedestrian">
        <personTrip from="1347077861#6" to="1306875955" modes="public"/>
    </person>
    <person id="ped164" depart="422.89" type="ped_pedestrian">
        <personTrip from="1106310163#2" to="991531596#1" modes="public"/>
    </person>
    <person id="ped165" depart="425.47" type="ped_pedestrian">
        <personTrip from="1346337595" to="1217769100" modes="public"/>
    </person>
    <person id="ped166" depart="428.05" type="ped_pedestrian">
        <personTrip from="991531596#1" to="1347077861#3" modes="public"/>
    </person>
    <person id="ped167" depart="430.63" type="ped_pedestrian">
        <personTrip from="1106310160#1" to="1466955039#0" modes="public"/>
    </person>
    <person id="ped168" depart="433.20" type="ped_pedestrian">
        <personTrip from="1276784686#0" to="1106310161#4" modes="public"/>
    </person>
    <person id="ped169" depart="435.78" type="ped_pedestrian">
        <personTrip from="1053381292" to="1466955035#5" modes="public"/>
    </person>
    <person id="ped170" depart="438.36" type="ped_pedestrian">
        <personTrip from="1086201531#2" to="1347077861#2" modes="public"/>
    </person>
    <person id="ped171" depart="440.94" type="ped_pedestrian">
        <personTrip from="1232466347" to="1093134867#2" modes="public"/>
    </person>
    <person id="ped172" depart="443.52" type="ped_pedestrian">
        <personTrip from="1276784684" to="-1093129470#1" modes="public"/>
    </person>
    <person id="ped173" depart="446.10" type="ped_pedestrian">
        <personTrip from="1232466340#1" to="-1093134867#2" modes="public"/>
    </person>
    <person id="ped174" depart="448.68" type="ped_pedestrian">
        <personTrip from="1218055036#2" to="-1093129470#1" modes="public"/>
    </person>
    <person id="ped175" depart="451.26" type="ped_pedestrian">
        <personTrip from="1466955035#1" to="1370473571#1" modes="public"/>
    </person>
    <person id="ped176" depart="453.83" type="ped_pedestrian">
        <personTrip from="1466669640#2" to="1093129464" modes="public"/>
    </person>
    <person id="ped177" depart="456.41" type="ped_pedestrian">
        <personTrip from="1232466340#1" to="1316371144#3" modes="public"/>
    </person>
    <person id="ped178" depart="458.99" type="ped_pedestrian">
        <personTrip from="1467828598#0" to="1087940505#1" modes="public"/>
    </person>
    <person id="ped179" depart="461.57" type="ped_pedestrian">
        <personTrip from="1466669618#4" to="1218055037#2" modes="public"/>
    </person>
    <person id="ped180" depart="464.15" type="ped_pedestrian">
        <personTrip from="-1317053754#1" to="1106310172#2" modes="public"/>
    </person>
    <person id="ped181" depart="466.73" type="ped_pedestrian">
        <personTrip from="1087940507#1" to="1467828598#0" modes="public"/>
    </person>
    <person id="ped182" depart="469.31" type="ped_pedestrian">
        <personTrip from="1466955051#1" to="-719591070" modes="public"/>
    </person>
    <person id="ped183" depart="471.88" type="ped_pedestrian">
        <personTrip from="718411455#1" to="1350604734" modes="public"/>
    </person>
    <person id="ped184" depart="474.46" type="ped_pedestrian">
        <personTrip from="1466669618#1" to="1466669618#6" modes="public"/>
    </person>
    <person id="ped185" depart="477.04" type="ped_pedestrian">
        <personTrip from="1466955035#0" to="1467828600#3" modes="public"/>
    </person>
    <person id="ped186" depart="479.62" type="ped_pedestrian">
        <personTrip from="1276784687#1" to="378505145#0" modes="public"/>
    </person>
    <person id="ped187" depart="482.20" type="ped_pedestrian">
        <personTrip from="718411455#1" to="1466955051#4" modes="public"/>
    </person>
    <person id="ped188" depart="484.78" type="ped_pedestrian">
        <personTrip from="1106310167" to="1466955051#3" modes="public"/>
    </person>
    <person id="ped189" depart="487.36" type="ped_pedestrian">
        <personTrip from="1282213222#0" to="1218055037#0" modes="public"/>
    </person>
    <person id="ped190" depart="489.93" type="ped_pedestrian">
        <personTrip from="1467828598#1" to="1086201530#0" modes="public"/>
    </person>
    <person id="ped191" depart="492.51" type="ped_pedestrian">
        <personTrip from="1232466340#0" to="1106310161#0" modes="public"/>
    </person>